
---------- Begin Simulation Statistics ----------
simSeconds                                   2.093851                       # Number of seconds simulated (Second)
simTicks                                 2093850985750                       # Number of ticks simulated (Tick)
finalTick                                2093850985750                       # Number of ticks from beginning of simulation (restored from checkpoints and never reset) (Tick)
simFreq                                  1000000000000                       # The number of ticks per simulated second ((Tick/Second))
hostSeconds                                     92.75                       # Real time elapsed on the host (Second)
hostTickRate                              22574243613                       # The number of ticks simulated per host second (ticks/s) ((Tick/Second))
hostMemory                                    8650208                       # Number of bytes of host memory used (Byte)
simInsts                                     63185062                       # Number of instructions simulated (Count)
simOps                                      103038852                       # Number of ops (including micro ops) simulated (Count)
hostInstRate                                   681211                       # Simulator instruction rate (inst/s) ((Count/Second))
hostOpRate                                    1110882                       # Simulator op (including micro ops) rate (op/s) ((Count/Second))
system.clk_domain.clock                         13333                       # Clock period in ticks (Tick)
system.clk_domain.voltage_domain.voltage            1                       # Voltage in Volts (Volt)
system.cpu.numCycles                        157042750                       # Number of cpu cycles simulated (Cycle)
system.cpu.cpi                               2.485360                       # CPI: cycles per instruction (core level) ((Cycle/Count))
system.cpu.ipc                               0.402356                       # IPC: instructions per cycle (core level) ((Count/Cycle))
system.cpu.numWorkItemsStarted                      0                       # Number of work items this cpu started (Count)
system.cpu.numWorkItemsCompleted                    0                       # Number of work items this cpu completed (Count)
system.cpu.commitStats0.numInsts             63187123                       # Number of instructions committed (thread level) (Count)
system.cpu.commitStats0.numOps              103041094                       # Number of ops (including micro ops) committed (thread level) (Count)
system.cpu.commitStats0.numInstsNotNOP              0                       # Number of instructions committed excluding NOPs or prefetches (Count)
system.cpu.commitStats0.numOpsNotNOP                0                       # Number of Ops (including micro ops) Simulated (Count)
system.cpu.commitStats0.cpi                  2.485360                       # CPI: cycles per instruction (thread level) ((Cycle/Count))
system.cpu.commitStats0.ipc                  0.402356                       # IPC: instructions per cycle (thread level) ((Count/Cycle))
system.cpu.commitStats0.numMemRefs                  0                       # Number of memory references committed (Count)
system.cpu.commitStats0.numFpInsts             872485                       # Number of float instructions (Count)
system.cpu.commitStats0.numIntInsts         101531232                       # Number of integer instructions (Count)
system.cpu.commitStats0.numLoadInsts         14637967                       # Number of load instructions (Count)
system.cpu.commitStats0.numStoreInsts         8091090                       # Number of store instructions (Count)
system.cpu.commitStats0.numVecInsts                 0                       # Number of vector instructions (Count)
system.cpu.commitStats0.committedInstType::No_OpClass       873970      0.85%      0.85% # Class of committed instruction. (Count)
system.cpu.commitStats0.committedInstType::IntAlu     76208960     73.96%     74.81% # Class of committed instruction. (Count)
system.cpu.commitStats0.committedInstType::IntMult      2654526      2.58%     77.38% # Class of committed instruction. (Count)
system.cpu.commitStats0.committedInstType::IntDiv       481772      0.47%     77.85% # Class of committed instruction. (Count)
system.cpu.commitStats0.committedInstType::FloatAdd        11439      0.01%     77.86% # Class of committed instruction. (Count)
system.cpu.commitStats0.committedInstType::FloatCmp            0      0.00%     77.86% # Class of committed instruction. (Count)
system.cpu.commitStats0.committedInstType::FloatCvt         1408      0.00%     77.86% # Class of committed instruction. (Count)
system.cpu.commitStats0.committedInstType::FloatMult            0      0.00%     77.86% # Class of committed instruction. (Count)
system.cpu.commitStats0.committedInstType::FloatMultAcc            0      0.00%     77.86% # Class of committed instruction. (Count)
system.cpu.commitStats0.committedInstType::FloatDiv            0      0.00%     77.86% # Class of committed instruction. (Count)
system.cpu.commitStats0.committedInstType::FloatMisc            0      0.00%     77.86% # Class of committed instruction. (Count)
system.cpu.commitStats0.committedInstType::FloatSqrt            0      0.00%     77.86% # Class of committed instruction. (Count)
system.cpu.commitStats0.committedInstType::SimdAdd         6950      0.01%     77.87% # Class of committed instruction. (Count)
system.cpu.commitStats0.committedInstType::SimdAddAcc            0      0.00%     77.87% # Class of committed instruction. (Count)
system.cpu.commitStats0.committedInstType::SimdAlu        23940      0.02%     77.89% # Class of committed instruction. (Count)
system.cpu.commitStats0.committedInstType::SimdCmp           12      0.00%     77.89% # Class of committed instruction. (Count)
system.cpu.commitStats0.committedInstType::SimdCvt        17636      0.02%     77.91% # Class of committed instruction. (Count)
system.cpu.commitStats0.committedInstType::SimdMisc        25235      0.02%     77.94% # Class of committed instruction. (Count)
system.cpu.commitStats0.committedInstType::SimdMult            0      0.00%     77.94% # Class of committed instruction. (Count)
system.cpu.commitStats0.committedInstType::SimdMultAcc            0      0.00%     77.94% # Class of committed instruction. (Count)
system.cpu.commitStats0.committedInstType::SimdMatMultAcc            0      0.00%     77.94% # Class of committed instruction. (Count)
system.cpu.commitStats0.committedInstType::SimdShift         1961      0.00%     77.94% # Class of committed instruction. (Count)
system.cpu.commitStats0.committedInstType::SimdShiftAcc            0      0.00%     77.94% # Class of committed instruction. (Count)
system.cpu.commitStats0.committedInstType::SimdDiv            0      0.00%     77.94% # Class of committed instruction. (Count)
system.cpu.commitStats0.committedInstType::SimdSqrt            0      0.00%     77.94% # Class of committed instruction. (Count)
system.cpu.commitStats0.committedInstType::SimdFloatAdd         1409      0.00%     77.94% # Class of committed instruction. (Count)
system.cpu.commitStats0.committedInstType::SimdFloatAlu            0      0.00%     77.94% # Class of committed instruction. (Count)
system.cpu.commitStats0.committedInstType::SimdFloatCmp            0      0.00%     77.94% # Class of committed instruction. (Count)
system.cpu.commitStats0.committedInstType::SimdFloatCvt         1666      0.00%     77.94% # Class of committed instruction. (Count)
system.cpu.commitStats0.committedInstType::SimdFloatDiv          321      0.00%     77.94% # Class of committed instruction. (Count)
system.cpu.commitStats0.committedInstType::SimdFloatMisc            0      0.00%     77.94% # Class of committed instruction. (Count)
system.cpu.commitStats0.committedInstType::SimdFloatMult          768      0.00%     77.94% # Class of committed instruction. (Count)
system.cpu.commitStats0.committedInstType::SimdFloatMultAcc            0      0.00%     77.94% # Class of committed instruction. (Count)
system.cpu.commitStats0.committedInstType::SimdFloatMatMultAcc            0      0.00%     77.94% # Class of committed instruction. (Count)
system.cpu.commitStats0.committedInstType::SimdFloatSqrt           64      0.00%     77.94% # Class of committed instruction. (Count)
system.cpu.commitStats0.committedInstType::SimdReduceAdd            0      0.00%     77.94% # Class of committed instruction. (Count)
system.cpu.commitStats0.committedInstType::SimdReduceAlu            0      0.00%     77.94% # Class of committed instruction. (Count)
system.cpu.commitStats0.committedInstType::SimdReduceCmp            0      0.00%     77.94% # Class of committed instruction. (Count)
system.cpu.commitStats0.committedInstType::SimdFloatReduceAdd            0      0.00%     77.94% # Class of committed instruction. (Count)
system.cpu.commitStats0.committedInstType::SimdFloatReduceCmp            0      0.00%     77.94% # Class of committed instruction. (Count)
system.cpu.commitStats0.committedInstType::SimdAes            0      0.00%     77.94% # Class of committed instruction. (Count)
system.cpu.commitStats0.committedInstType::SimdAesMix            0      0.00%     77.94% # Class of committed instruction. (Count)
system.cpu.commitStats0.committedInstType::SimdSha1Hash            0      0.00%     77.94% # Class of committed instruction. (Count)
system.cpu.commitStats0.committedInstType::SimdSha1Hash2            0      0.00%     77.94% # Class of committed instruction. (Count)
system.cpu.commitStats0.committedInstType::SimdSha256Hash            0      0.00%     77.94% # Class of committed instruction. (Count)
system.cpu.commitStats0.committedInstType::SimdSha256Hash2            0      0.00%     77.94% # Class of committed instruction. (Count)
system.cpu.commitStats0.committedInstType::SimdShaSigma2            0      0.00%     77.94% # Class of committed instruction. (Count)
system.cpu.commitStats0.committedInstType::SimdShaSigma3            0      0.00%     77.94% # Class of committed instruction. (Count)
system.cpu.commitStats0.committedInstType::SimdPredAlu            0      0.00%     77.94% # Class of committed instruction. (Count)
system.cpu.commitStats0.committedInstType::Matrix            0      0.00%     77.94% # Class of committed instruction. (Count)
system.cpu.commitStats0.committedInstType::MatrixMov            0      0.00%     77.94% # Class of committed instruction. (Count)
system.cpu.commitStats0.committedInstType::MatrixOP            0      0.00%     77.94% # Class of committed instruction. (Count)
system.cpu.commitStats0.committedInstType::MemRead     14256408     13.84%     91.78% # Class of committed instruction. (Count)
system.cpu.commitStats0.committedInstType::MemWrite      7701639      7.47%     99.25% # Class of committed instruction. (Count)
system.cpu.commitStats0.committedInstType::FloatMemRead       381559      0.37%     99.62% # Class of committed instruction. (Count)
system.cpu.commitStats0.committedInstType::FloatMemWrite       389451      0.38%    100.00% # Class of committed instruction. (Count)
system.cpu.commitStats0.committedInstType::IprAccess            0      0.00%    100.00% # Class of committed instruction. (Count)
system.cpu.commitStats0.committedInstType::InstPrefetch            0      0.00%    100.00% # Class of committed instruction. (Count)
system.cpu.commitStats0.committedInstType::SimdUnitStrideLoad            0      0.00%    100.00% # Class of committed instruction. (Count)
system.cpu.commitStats0.committedInstType::SimdUnitStrideStore            0      0.00%    100.00% # Class of committed instruction. (Count)
system.cpu.commitStats0.committedInstType::SimdUnitStrideMaskLoad            0      0.00%    100.00% # Class of committed instruction. (Count)
system.cpu.commitStats0.committedInstType::SimdUnitStrideMaskStore            0      0.00%    100.00% # Class of committed instruction. (Count)
system.cpu.commitStats0.committedInstType::SimdStridedLoad            0      0.00%    100.00% # Class of committed instruction. (Count)
system.cpu.commitStats0.committedInstType::SimdStridedStore            0      0.00%    100.00% # Class of committed instruction. (Count)
system.cpu.commitStats0.committedInstType::SimdIndexedLoad            0      0.00%    100.00% # Class of committed instruction. (Count)
system.cpu.commitStats0.committedInstType::SimdIndexedStore            0      0.00%    100.00% # Class of committed instruction. (Count)
system.cpu.commitStats0.committedInstType::SimdWholeRegisterLoad            0      0.00%    100.00% # Class of committed instruction. (Count)
system.cpu.commitStats0.committedInstType::SimdWholeRegisterStore            0      0.00%    100.00% # Class of committed instruction. (Count)
system.cpu.commitStats0.committedInstType::SimdUnitStrideFaultOnlyFirstLoad            0      0.00%    100.00% # Class of committed instruction. (Count)
system.cpu.commitStats0.committedInstType::SimdUnitStrideSegmentedLoad            0      0.00%    100.00% # Class of committed instruction. (Count)
system.cpu.commitStats0.committedInstType::SimdUnitStrideSegmentedStore            0      0.00%    100.00% # Class of committed instruction. (Count)
system.cpu.commitStats0.committedInstType::SimdExt            0      0.00%    100.00% # Class of committed instruction. (Count)
system.cpu.commitStats0.committedInstType::SimdFloatExt            0      0.00%    100.00% # Class of committed instruction. (Count)
system.cpu.commitStats0.committedInstType::SimdConfig            0      0.00%    100.00% # Class of committed instruction. (Count)
system.cpu.commitStats0.committedInstType::total    103041094                       # Class of committed instruction. (Count)
system.cpu.commitStats0.committedControl::IsControl      7836422                       # Class of control type instructions committed (Count)
system.cpu.commitStats0.committedControl::IsDirectControl      7096733                       # Class of control type instructions committed (Count)
system.cpu.commitStats0.committedControl::IsIndirectControl       739408                       # Class of control type instructions committed (Count)
system.cpu.commitStats0.committedControl::IsCondControl      6091735                       # Class of control type instructions committed (Count)
system.cpu.commitStats0.committedControl::IsUncondControl      1744406                       # Class of control type instructions committed (Count)
system.cpu.commitStats0.committedControl::IsCall       714244                       # Class of control type instructions committed (Count)
system.cpu.commitStats0.committedControl::IsReturn       714239                       # Class of control type instructions committed (Count)
system.cpu.exec_context.thread_0.numMatAluAccesses            0                       # Number of matrix alu accesses (Count)
system.cpu.exec_context.thread_0.numCallsReturns      1428483                       # Number of times a function call or return occured (Count)
system.cpu.exec_context.thread_0.numMatInsts            0                       # Number of matrix instructions (Count)
system.cpu.exec_context.thread_0.numIdleCycles            0                       # Number of idle cycles (Cycle)
system.cpu.exec_context.thread_0.numBusyCycles    157042750                       # Number of busy cycles (Cycle)
system.cpu.exec_context.thread_0.notIdleFraction            1                       # Percentage of non-idle cycles (Ratio)
system.cpu.exec_context.thread_0.idleFraction            0                       # Percentage of idle cycles (Ratio)
system.cpu.executeStats0.numInsts                   0                       # Number of executed instructions (Count)
system.cpu.executeStats0.numNop                     0                       # Number of nop insts executed (Count)
system.cpu.executeStats0.numBranches                0                       # Number of branches executed (Count)
system.cpu.executeStats0.numLoadInsts               0                       # Number of load instructions executed (Count)
system.cpu.executeStats0.numStoreInsts       22729057                       # Number of stores executed (Count)
system.cpu.executeStats0.instRate                   0                       # Inst execution rate ((Count/Cycle))
system.cpu.executeStats0.numFpAluAccesses       872485                       # Number of float alu accesses (Count)
system.cpu.executeStats0.numFpRegReads         576276                       # Number of times the floating registers were read (Count)
system.cpu.executeStats0.numFpRegWrites        469575                       # Number of times the floating registers were written (Count)
system.cpu.executeStats0.numIntAluAccesses    101531232                       # Number of integer alu accesses (Count)
system.cpu.executeStats0.numIntRegReads     137001613                       # Number of times the integer registers were read (Count)
system.cpu.executeStats0.numIntRegWrites     81215000                       # Number of times the integer registers were written (Count)
system.cpu.executeStats0.numMemRefs          22729057                       # Number of memory refs (Count)
system.cpu.executeStats0.numMiscRegReads     37587071                       # Number of times the Misc registers were read (Count)
system.cpu.executeStats0.numMiscRegWrites          792                       # Number of times the Misc registers were written (Count)
system.cpu.executeStats0.numVecAluAccesses            0                       # Number of vector alu accesses (Count)
system.cpu.executeStats0.numDiscardedOps            0                       # Number of ops (including micro ops) which were discarded before commit (Count)
system.cpu.fetchStats0.numInsts              63187123                       # Number of instructions fetched (thread level) (Count)
system.cpu.fetchStats0.numOps               103041094                       # Number of ops (including micro ops) fetched (thread level) (Count)
system.cpu.fetchStats0.fetchRate             0.402356                       # Number of inst fetches per cycle ((Count/Cycle))
system.cpu.fetchStats0.numBranches            7836422                       # Number of branches fetched (Count)
system.cpu.fetchStats0.branchRate            0.049900                       # Number of branch fetches per cycle (Ratio)
system.cpu.fetchStats0.numFetchSuspends             0                       # Number of times Execute suspended instruction fetching (Count)
system.cpu.interrupts.clk_domain.clock         213328                       # Clock period in ticks (Tick)
system.cpu.l1d.demandHits::cpu.data          21623085                       # number of demand (read+write) hits (Count)
system.cpu.l1d.demandHits::total             21623085                       # number of demand (read+write) hits (Count)
system.cpu.l1d.overallHits::cpu.data         21623085                       # number of overall hits (Count)
system.cpu.l1d.overallHits::total            21623085                       # number of overall hits (Count)
system.cpu.l1d.demandMisses::cpu.data          683460                       # number of demand (read+write) misses (Count)
system.cpu.l1d.demandMisses::total             683460                       # number of demand (read+write) misses (Count)
system.cpu.l1d.overallMisses::cpu.data         683460                       # number of overall misses (Count)
system.cpu.l1d.overallMisses::total            683460                       # number of overall misses (Count)
system.cpu.l1d.demandMissLatency::cpu.data 137925511776                       # number of demand (read+write) miss ticks (Tick)
system.cpu.l1d.demandMissLatency::total  137925511776                       # number of demand (read+write) miss ticks (Tick)
system.cpu.l1d.overallMissLatency::cpu.data 137925511776                       # number of overall miss ticks (Tick)
system.cpu.l1d.overallMissLatency::total 137925511776                       # number of overall miss ticks (Tick)
system.cpu.l1d.demandAccesses::cpu.data      22306545                       # number of demand (read+write) accesses (Count)
system.cpu.l1d.demandAccesses::total         22306545                       # number of demand (read+write) accesses (Count)
system.cpu.l1d.overallAccesses::cpu.data     22306545                       # number of overall (read+write) accesses (Count)
system.cpu.l1d.overallAccesses::total        22306545                       # number of overall (read+write) accesses (Count)
system.cpu.l1d.demandMissRate::cpu.data      0.030639                       # miss rate for demand accesses (Ratio)
system.cpu.l1d.demandMissRate::total         0.030639                       # miss rate for demand accesses (Ratio)
system.cpu.l1d.overallMissRate::cpu.data     0.030639                       # miss rate for overall accesses (Ratio)
system.cpu.l1d.overallMissRate::total        0.030639                       # miss rate for overall accesses (Ratio)
system.cpu.l1d.demandAvgMissLatency::cpu.data 201804.804635                       # average overall miss latency in ticks ((Tick/Count))
system.cpu.l1d.demandAvgMissLatency::total 201804.804635                       # average overall miss latency in ticks ((Tick/Count))
system.cpu.l1d.overallAvgMissLatency::cpu.data 201804.804635                       # average overall miss latency ((Tick/Count))
system.cpu.l1d.overallAvgMissLatency::total 201804.804635                       # average overall miss latency ((Tick/Count))
system.cpu.l1d.blockedCycles::no_mshrs              0                       # number of cycles access was blocked (Cycle)
system.cpu.l1d.blockedCycles::no_targets            0                       # number of cycles access was blocked (Cycle)
system.cpu.l1d.blockedCauses::no_mshrs              0                       # number of times access was blocked (Count)
system.cpu.l1d.blockedCauses::no_targets            0                       # number of times access was blocked (Count)
system.cpu.l1d.avgBlocked::no_mshrs               nan                       # average number of cycles each access was blocked ((Cycle/Count))
system.cpu.l1d.avgBlocked::no_targets             nan                       # average number of cycles each access was blocked ((Cycle/Count))
system.cpu.l1d.writebacks::writebacks          497975                       # number of writebacks (Count)
system.cpu.l1d.writebacks::total               497975                       # number of writebacks (Count)
system.cpu.l1d.demandMshrHits::cpu.data          6710                       # number of demand (read+write) MSHR hits (Count)
system.cpu.l1d.demandMshrHits::total             6710                       # number of demand (read+write) MSHR hits (Count)
system.cpu.l1d.overallMshrHits::cpu.data         6710                       # number of overall MSHR hits (Count)
system.cpu.l1d.overallMshrHits::total            6710                       # number of overall MSHR hits (Count)
system.cpu.l1d.demandMshrMisses::cpu.data       676750                       # number of demand (read+write) MSHR misses (Count)
system.cpu.l1d.demandMshrMisses::total         676750                       # number of demand (read+write) MSHR misses (Count)
system.cpu.l1d.overallMshrMisses::cpu.data       676750                       # number of overall MSHR misses (Count)
system.cpu.l1d.overallMshrMisses::cpu.l1d.prefetcher       552269                       # number of overall MSHR misses (Count)
system.cpu.l1d.overallMshrMisses::total       1229019                       # number of overall MSHR misses (Count)
system.cpu.l1d.demandMshrMissLatency::cpu.data 128349684511                       # number of demand (read+write) MSHR miss ticks (Tick)
system.cpu.l1d.demandMshrMissLatency::total 128349684511                       # number of demand (read+write) MSHR miss ticks (Tick)
system.cpu.l1d.overallMshrMissLatency::cpu.data 128349684511                       # number of overall MSHR miss ticks (Tick)
system.cpu.l1d.overallMshrMissLatency::cpu.l1d.prefetcher 121122964221                       # number of overall MSHR miss ticks (Tick)
system.cpu.l1d.overallMshrMissLatency::total 249472648732                       # number of overall MSHR miss ticks (Tick)
system.cpu.l1d.demandMshrMissRate::cpu.data     0.030339                       # mshr miss ratio for demand accesses (Ratio)
system.cpu.l1d.demandMshrMissRate::total     0.030339                       # mshr miss ratio for demand accesses (Ratio)
system.cpu.l1d.overallMshrMissRate::cpu.data     0.030339                       # mshr miss ratio for overall accesses (Ratio)
system.cpu.l1d.overallMshrMissRate::cpu.l1d.prefetcher          inf                       # mshr miss ratio for overall accesses (Ratio)
system.cpu.l1d.overallMshrMissRate::total     0.055097                       # mshr miss ratio for overall accesses (Ratio)
system.cpu.l1d.demandAvgMshrMissLatency::cpu.data 189655.980068                       # average overall mshr miss latency ((Tick/Count))
system.cpu.l1d.demandAvgMshrMissLatency::total 189655.980068                       # average overall mshr miss latency ((Tick/Count))
system.cpu.l1d.overallAvgMshrMissLatency::cpu.data 189655.980068                       # average overall mshr miss latency ((Tick/Count))
system.cpu.l1d.overallAvgMshrMissLatency::cpu.l1d.prefetcher 219318.781646                       # average overall mshr miss latency ((Tick/Count))
system.cpu.l1d.overallAvgMshrMissLatency::total 202985.184714                       # average overall mshr miss latency ((Tick/Count))
system.cpu.l1d.replacements                   1232857                       # number of replacements (Count)
system.cpu.l1d.HardPFReq.mshrMisses::cpu.l1d.prefetcher       552269                       # number of HardPFReq MSHR misses (Count)
system.cpu.l1d.HardPFReq.mshrMisses::total       552269                       # number of HardPFReq MSHR misses (Count)
system.cpu.l1d.HardPFReq.mshrMissLatency::cpu.l1d.prefetcher 121122964221                       # number of HardPFReq MSHR miss ticks (Tick)
system.cpu.l1d.HardPFReq.mshrMissLatency::total 121122964221                       # number of HardPFReq MSHR miss ticks (Tick)
system.cpu.l1d.HardPFReq.mshrMissRate::cpu.l1d.prefetcher          inf                       # mshr miss rate for HardPFReq accesses (Ratio)
system.cpu.l1d.HardPFReq.mshrMissRate::total          inf                       # mshr miss rate for HardPFReq accesses (Ratio)
system.cpu.l1d.HardPFReq.avgMshrMissLatency::cpu.l1d.prefetcher 219318.781646                       # average HardPFReq mshr miss latency ((Tick/Count))
system.cpu.l1d.HardPFReq.avgMshrMissLatency::total 219318.781646                       # average HardPFReq mshr miss latency ((Tick/Count))
system.cpu.l1d.LockedRMWReadReq.hits::cpu.data       207075                       # number of LockedRMWReadReq hits (Count)
system.cpu.l1d.LockedRMWReadReq.hits::total       207075                       # number of LockedRMWReadReq hits (Count)
system.cpu.l1d.LockedRMWReadReq.misses::cpu.data         3902                       # number of LockedRMWReadReq misses (Count)
system.cpu.l1d.LockedRMWReadReq.misses::total         3902                       # number of LockedRMWReadReq misses (Count)
system.cpu.l1d.LockedRMWReadReq.missLatency::cpu.data    680222994                       # number of LockedRMWReadReq miss ticks (Tick)
system.cpu.l1d.LockedRMWReadReq.missLatency::total    680222994                       # number of LockedRMWReadReq miss ticks (Tick)
system.cpu.l1d.LockedRMWReadReq.accesses::cpu.data       210977                       # number of LockedRMWReadReq accesses(hits+misses) (Count)
system.cpu.l1d.LockedRMWReadReq.accesses::total       210977                       # number of LockedRMWReadReq accesses(hits+misses) (Count)
system.cpu.l1d.LockedRMWReadReq.missRate::cpu.data     0.018495                       # miss rate for LockedRMWReadReq accesses (Ratio)
system.cpu.l1d.LockedRMWReadReq.missRate::total     0.018495                       # miss rate for LockedRMWReadReq accesses (Ratio)
system.cpu.l1d.LockedRMWReadReq.avgMissLatency::cpu.data 174326.753972                       # average LockedRMWReadReq miss latency ((Tick/Count))
system.cpu.l1d.LockedRMWReadReq.avgMissLatency::total 174326.753972                       # average LockedRMWReadReq miss latency ((Tick/Count))
system.cpu.l1d.LockedRMWReadReq.mshrMisses::cpu.data         3902                       # number of LockedRMWReadReq MSHR misses (Count)
system.cpu.l1d.LockedRMWReadReq.mshrMisses::total         3902                       # number of LockedRMWReadReq MSHR misses (Count)
system.cpu.l1d.LockedRMWReadReq.mshrMissLatency::cpu.data   4069351597                       # number of LockedRMWReadReq MSHR miss ticks (Tick)
system.cpu.l1d.LockedRMWReadReq.mshrMissLatency::total   4069351597                       # number of LockedRMWReadReq MSHR miss ticks (Tick)
system.cpu.l1d.LockedRMWReadReq.mshrMissRate::cpu.data     0.018495                       # mshr miss rate for LockedRMWReadReq accesses (Ratio)
system.cpu.l1d.LockedRMWReadReq.mshrMissRate::total     0.018495                       # mshr miss rate for LockedRMWReadReq accesses (Ratio)
system.cpu.l1d.LockedRMWReadReq.avgMshrMissLatency::cpu.data 1042888.671707                       # average LockedRMWReadReq mshr miss latency ((Tick/Count))
system.cpu.l1d.LockedRMWReadReq.avgMshrMissLatency::total 1042888.671707                       # average LockedRMWReadReq mshr miss latency ((Tick/Count))
system.cpu.l1d.LockedRMWWriteReq.hits::cpu.data       210977                       # number of LockedRMWWriteReq hits (Count)
system.cpu.l1d.LockedRMWWriteReq.hits::total       210977                       # number of LockedRMWWriteReq hits (Count)
system.cpu.l1d.LockedRMWWriteReq.accesses::cpu.data       210977                       # number of LockedRMWWriteReq accesses(hits+misses) (Count)
system.cpu.l1d.LockedRMWWriteReq.accesses::total       210977                       # number of LockedRMWWriteReq accesses(hits+misses) (Count)
system.cpu.l1d.ReadReq.hits::cpu.data        13942847                       # number of ReadReq hits (Count)
system.cpu.l1d.ReadReq.hits::total           13942847                       # number of ReadReq hits (Count)
system.cpu.l1d.ReadReq.misses::cpu.data        483916                       # number of ReadReq misses (Count)
system.cpu.l1d.ReadReq.misses::total           483916                       # number of ReadReq misses (Count)
system.cpu.l1d.ReadReq.missLatency::cpu.data  99198386645                       # number of ReadReq miss ticks (Tick)
system.cpu.l1d.ReadReq.missLatency::total  99198386645                       # number of ReadReq miss ticks (Tick)
system.cpu.l1d.ReadReq.accesses::cpu.data     14426763                       # number of ReadReq accesses(hits+misses) (Count)
system.cpu.l1d.ReadReq.accesses::total       14426763                       # number of ReadReq accesses(hits+misses) (Count)
system.cpu.l1d.ReadReq.missRate::cpu.data     0.033543                       # miss rate for ReadReq accesses (Ratio)
system.cpu.l1d.ReadReq.missRate::total       0.033543                       # miss rate for ReadReq accesses (Ratio)
system.cpu.l1d.ReadReq.avgMissLatency::cpu.data 204990.921245                       # average ReadReq miss latency ((Tick/Count))
system.cpu.l1d.ReadReq.avgMissLatency::total 204990.921245                       # average ReadReq miss latency ((Tick/Count))
system.cpu.l1d.ReadReq.mshrHits::cpu.data         4866                       # number of ReadReq MSHR hits (Count)
system.cpu.l1d.ReadReq.mshrHits::total           4866                       # number of ReadReq MSHR hits (Count)
system.cpu.l1d.ReadReq.mshrMisses::cpu.data       479050                       # number of ReadReq MSHR misses (Count)
system.cpu.l1d.ReadReq.mshrMisses::total       479050                       # number of ReadReq MSHR misses (Count)
system.cpu.l1d.ReadReq.mshrMissLatency::cpu.data  92415502888                       # number of ReadReq MSHR miss ticks (Tick)
system.cpu.l1d.ReadReq.mshrMissLatency::total  92415502888                       # number of ReadReq MSHR miss ticks (Tick)
system.cpu.l1d.ReadReq.mshrMissRate::cpu.data     0.033206                       # mshr miss rate for ReadReq accesses (Ratio)
system.cpu.l1d.ReadReq.mshrMissRate::total     0.033206                       # mshr miss rate for ReadReq accesses (Ratio)
system.cpu.l1d.ReadReq.avgMshrMissLatency::cpu.data 192914.106853                       # average ReadReq mshr miss latency ((Tick/Count))
system.cpu.l1d.ReadReq.avgMshrMissLatency::total 192914.106853                       # average ReadReq mshr miss latency ((Tick/Count))
system.cpu.l1d.WriteReq.hits::cpu.data        7680238                       # number of WriteReq hits (Count)
system.cpu.l1d.WriteReq.hits::total           7680238                       # number of WriteReq hits (Count)
system.cpu.l1d.WriteReq.misses::cpu.data       199544                       # number of WriteReq misses (Count)
system.cpu.l1d.WriteReq.misses::total          199544                       # number of WriteReq misses (Count)
system.cpu.l1d.WriteReq.missLatency::cpu.data  38727125131                       # number of WriteReq miss ticks (Tick)
system.cpu.l1d.WriteReq.missLatency::total  38727125131                       # number of WriteReq miss ticks (Tick)
system.cpu.l1d.WriteReq.accesses::cpu.data      7879782                       # number of WriteReq accesses(hits+misses) (Count)
system.cpu.l1d.WriteReq.accesses::total       7879782                       # number of WriteReq accesses(hits+misses) (Count)
system.cpu.l1d.WriteReq.missRate::cpu.data     0.025324                       # miss rate for WriteReq accesses (Ratio)
system.cpu.l1d.WriteReq.missRate::total      0.025324                       # miss rate for WriteReq accesses (Ratio)
system.cpu.l1d.WriteReq.avgMissLatency::cpu.data 194078.123777                       # average WriteReq miss latency ((Tick/Count))
system.cpu.l1d.WriteReq.avgMissLatency::total 194078.123777                       # average WriteReq miss latency ((Tick/Count))
system.cpu.l1d.WriteReq.mshrHits::cpu.data         1844                       # number of WriteReq MSHR hits (Count)
system.cpu.l1d.WriteReq.mshrHits::total          1844                       # number of WriteReq MSHR hits (Count)
system.cpu.l1d.WriteReq.mshrMisses::cpu.data       197700                       # number of WriteReq MSHR misses (Count)
system.cpu.l1d.WriteReq.mshrMisses::total       197700                       # number of WriteReq MSHR misses (Count)
system.cpu.l1d.WriteReq.mshrMissLatency::cpu.data  35934181623                       # number of WriteReq MSHR miss ticks (Tick)
system.cpu.l1d.WriteReq.mshrMissLatency::total  35934181623                       # number of WriteReq MSHR miss ticks (Tick)
system.cpu.l1d.WriteReq.mshrMissRate::cpu.data     0.025090                       # mshr miss rate for WriteReq accesses (Ratio)
system.cpu.l1d.WriteReq.mshrMissRate::total     0.025090                       # mshr miss rate for WriteReq accesses (Ratio)
system.cpu.l1d.WriteReq.avgMshrMissLatency::cpu.data 181761.161472                       # average WriteReq mshr miss latency ((Tick/Count))
system.cpu.l1d.WriteReq.avgMshrMissLatency::total 181761.161472                       # average WriteReq mshr miss latency ((Tick/Count))
system.cpu.l1d.power_state.pwrStateResidencyTicks::UNDEFINED 2093850985750                       # Cumulative time (in ticks) in various power states (Tick)
system.cpu.l1d.prefetcher.demandMshrMisses       676750                       # demands not covered by prefetchs (Count)
system.cpu.l1d.prefetcher.pfIssued             917404                       # number of hwpf issued (Count)
system.cpu.l1d.prefetcher.pfUnused             301011                       # number of HardPF blocks evicted w/o reference (Count)
system.cpu.l1d.prefetcher.pfUseful             244529                       # number of useful prefetch (Count)
system.cpu.l1d.prefetcher.pfUsefulButMiss            0                       # number of hit on prefetch but cache block is not in an usable state (Count)
system.cpu.l1d.prefetcher.accuracy           0.266545                       # accuracy of the prefetcher (Count)
system.cpu.l1d.prefetcher.coverage           0.265423                       # coverage brought by this prefetcher (Count)
system.cpu.l1d.prefetcher.pfHitInCache         365119                       # number of prefetches hitting in cache (Count)
system.cpu.l1d.prefetcher.pfHitInMSHR               0                       # number of prefetches hitting in a MSHR (Count)
system.cpu.l1d.prefetcher.pfHitInWB                16                       # number of prefetches hit in the Write Buffer (Count)
system.cpu.l1d.prefetcher.pfLate               365135                       # number of late prefetches (hitting in cache, MSHR or WB) (Count)
system.cpu.l1d.prefetcher.pfIdentified         917408                       # number of prefetch candidates identified (Count)
system.cpu.l1d.prefetcher.pfBufferHit               0                       # number of redundant prefetches already in prefetch queue (Count)
system.cpu.l1d.prefetcher.pfInCache                 0                       # number of redundant prefetches already in cache/mshr dropped (Count)
system.cpu.l1d.prefetcher.pfRemovedDemand            4                       # number of prefetches dropped due to a demand for the same address (Count)
system.cpu.l1d.prefetcher.pfRemovedFull             0                       # number of prefetches dropped due to prefetch queue size (Count)
system.cpu.l1d.prefetcher.pfSpanPage            14483                       # number of prefetches that crossed the page (Count)
system.cpu.l1d.prefetcher.pfUsefulSpanPage         1595                       # number of prefetches that is useful and crossed the page (Count)
system.cpu.l1d.prefetcher.power_state.pwrStateResidencyTicks::UNDEFINED 2093850985750                       # Cumulative time (in ticks) in various power states (Tick)
system.cpu.l1d.tags.tagsInUse               63.999556                       # Average ticks per tags in use ((Tick/Count))
system.cpu.l1d.tags.totalRefs                23273360                       # Total number of references to valid blocks. (Count)
system.cpu.l1d.tags.sampledRefs               1232857                       # Sample count of references to valid blocks. (Count)
system.cpu.l1d.tags.avgRefs                 18.877583                       # Average number of references to valid blocks. ((Count/Count))
system.cpu.l1d.tags.warmupTick                 479988                       # The tick when the warmup percentage was hit. (Tick)
system.cpu.l1d.tags.occupancies::cpu.data    35.311675                       # Average occupied blocks per tick, per requestor ((Count/Tick))
system.cpu.l1d.tags.occupancies::cpu.l1d.prefetcher    28.687881                       # Average occupied blocks per tick, per requestor ((Count/Tick))
system.cpu.l1d.tags.avgOccs::cpu.data        0.551745                       # Average percentage of cache occupancy ((Ratio/Tick))
system.cpu.l1d.tags.avgOccs::cpu.l1d.prefetcher     0.448248                       # Average percentage of cache occupancy ((Ratio/Tick))
system.cpu.l1d.tags.avgOccs::total           0.999993                       # Average percentage of cache occupancy ((Ratio/Tick))
system.cpu.l1d.tags.occupanciesTaskId::1022           30                       # Occupied blocks per task id (Count)
system.cpu.l1d.tags.occupanciesTaskId::1024           34                       # Occupied blocks per task id (Count)
system.cpu.l1d.tags.ageTaskId_1022::0               8                       # Occupied blocks per task id, per block age (Count)
system.cpu.l1d.tags.ageTaskId_1022::1              20                       # Occupied blocks per task id, per block age (Count)
system.cpu.l1d.tags.ageTaskId_1022::2               2                       # Occupied blocks per task id, per block age (Count)
system.cpu.l1d.tags.ageTaskId_1024::0               4                       # Occupied blocks per task id, per block age (Count)
system.cpu.l1d.tags.ageTaskId_1024::1              24                       # Occupied blocks per task id, per block age (Count)
system.cpu.l1d.tags.ageTaskId_1024::2               6                       # Occupied blocks per task id, per block age (Count)
system.cpu.l1d.tags.ratioOccsTaskId::1022     0.468750                       # Ratio of occupied blocks and all blocks, per task id (Ratio)
system.cpu.l1d.tags.ratioOccsTaskId::1024     0.531250                       # Ratio of occupied blocks and all blocks, per task id (Ratio)
system.cpu.l1d.tags.tagAccesses              46689919                       # Number of tag accesses (Count)
system.cpu.l1d.tags.dataAccesses             46689919                       # Number of data accesses (Count)
system.cpu.l1d.tags.power_state.pwrStateResidencyTicks::UNDEFINED 2093850985750                       # Cumulative time (in ticks) in various power states (Tick)
system.cpu.l1i.demandHits::cpu.inst          80131267                       # number of demand (read+write) hits (Count)
system.cpu.l1i.demandHits::total             80131267                       # number of demand (read+write) hits (Count)
system.cpu.l1i.overallHits::cpu.inst         80131267                       # number of overall hits (Count)
system.cpu.l1i.overallHits::total            80131267                       # number of overall hits (Count)
system.cpu.l1i.demandMisses::cpu.inst         2222548                       # number of demand (read+write) misses (Count)
system.cpu.l1i.demandMisses::total            2222548                       # number of demand (read+write) misses (Count)
system.cpu.l1i.overallMisses::cpu.inst        2222548                       # number of overall misses (Count)
system.cpu.l1i.overallMisses::total           2222548                       # number of overall misses (Count)
system.cpu.l1i.demandMissLatency::cpu.inst 477403064625                       # number of demand (read+write) miss ticks (Tick)
system.cpu.l1i.demandMissLatency::total  477403064625                       # number of demand (read+write) miss ticks (Tick)
system.cpu.l1i.overallMissLatency::cpu.inst 477403064625                       # number of overall miss ticks (Tick)
system.cpu.l1i.overallMissLatency::total 477403064625                       # number of overall miss ticks (Tick)
system.cpu.l1i.demandAccesses::cpu.inst      82353815                       # number of demand (read+write) accesses (Count)
system.cpu.l1i.demandAccesses::total         82353815                       # number of demand (read+write) accesses (Count)
system.cpu.l1i.overallAccesses::cpu.inst     82353815                       # number of overall (read+write) accesses (Count)
system.cpu.l1i.overallAccesses::total        82353815                       # number of overall (read+write) accesses (Count)
system.cpu.l1i.demandMissRate::cpu.inst      0.026988                       # miss rate for demand accesses (Ratio)
system.cpu.l1i.demandMissRate::total         0.026988                       # miss rate for demand accesses (Ratio)
system.cpu.l1i.overallMissRate::cpu.inst     0.026988                       # miss rate for overall accesses (Ratio)
system.cpu.l1i.overallMissRate::total        0.026988                       # miss rate for overall accesses (Ratio)
system.cpu.l1i.demandAvgMissLatency::cpu.inst 214799.889417                       # average overall miss latency in ticks ((Tick/Count))
system.cpu.l1i.demandAvgMissLatency::total 214799.889417                       # average overall miss latency in ticks ((Tick/Count))
system.cpu.l1i.overallAvgMissLatency::cpu.inst 214799.889417                       # average overall miss latency ((Tick/Count))
system.cpu.l1i.overallAvgMissLatency::total 214799.889417                       # average overall miss latency ((Tick/Count))
system.cpu.l1i.blockedCycles::no_mshrs              0                       # number of cycles access was blocked (Cycle)
system.cpu.l1i.blockedCycles::no_targets            0                       # number of cycles access was blocked (Cycle)
system.cpu.l1i.blockedCauses::no_mshrs              0                       # number of times access was blocked (Count)
system.cpu.l1i.blockedCauses::no_targets            0                       # number of times access was blocked (Count)
system.cpu.l1i.avgBlocked::no_mshrs               nan                       # average number of cycles each access was blocked ((Cycle/Count))
system.cpu.l1i.avgBlocked::no_targets             nan                       # average number of cycles each access was blocked ((Cycle/Count))
system.cpu.l1i.demandMshrHits::cpu.inst         75228                       # number of demand (read+write) MSHR hits (Count)
system.cpu.l1i.demandMshrHits::total            75228                       # number of demand (read+write) MSHR hits (Count)
system.cpu.l1i.overallMshrHits::cpu.inst        75228                       # number of overall MSHR hits (Count)
system.cpu.l1i.overallMshrHits::total           75228                       # number of overall MSHR hits (Count)
system.cpu.l1i.demandMshrMisses::cpu.inst      2147320                       # number of demand (read+write) MSHR misses (Count)
system.cpu.l1i.demandMshrMisses::total        2147320                       # number of demand (read+write) MSHR misses (Count)
system.cpu.l1i.overallMshrMisses::cpu.inst      2147320                       # number of overall MSHR misses (Count)
system.cpu.l1i.overallMshrMisses::cpu.l1i.prefetcher      4006202                       # number of overall MSHR misses (Count)
system.cpu.l1i.overallMshrMisses::total       6153522                       # number of overall MSHR misses (Count)
system.cpu.l1i.demandMshrMissLatency::cpu.inst 443009231159                       # number of demand (read+write) MSHR miss ticks (Tick)
system.cpu.l1i.demandMshrMissLatency::total 443009231159                       # number of demand (read+write) MSHR miss ticks (Tick)
system.cpu.l1i.overallMshrMissLatency::cpu.inst 443009231159                       # number of overall MSHR miss ticks (Tick)
system.cpu.l1i.overallMshrMissLatency::cpu.l1i.prefetcher 880317289225                       # number of overall MSHR miss ticks (Tick)
system.cpu.l1i.overallMshrMissLatency::total 1323326520384                       # number of overall MSHR miss ticks (Tick)
system.cpu.l1i.demandMshrMissRate::cpu.inst     0.026074                       # mshr miss ratio for demand accesses (Ratio)
system.cpu.l1i.demandMshrMissRate::total     0.026074                       # mshr miss ratio for demand accesses (Ratio)
system.cpu.l1i.overallMshrMissRate::cpu.inst     0.026074                       # mshr miss ratio for overall accesses (Ratio)
system.cpu.l1i.overallMshrMissRate::cpu.l1i.prefetcher          inf                       # mshr miss ratio for overall accesses (Ratio)
system.cpu.l1i.overallMshrMissRate::total     0.074721                       # mshr miss ratio for overall accesses (Ratio)
system.cpu.l1i.demandAvgMshrMissLatency::cpu.inst 206307.970474                       # average overall mshr miss latency ((Tick/Count))
system.cpu.l1i.demandAvgMshrMissLatency::total 206307.970474                       # average overall mshr miss latency ((Tick/Count))
system.cpu.l1i.overallAvgMshrMissLatency::cpu.inst 206307.970474                       # average overall mshr miss latency ((Tick/Count))
system.cpu.l1i.overallAvgMshrMissLatency::cpu.l1i.prefetcher 219738.617580                       # average overall mshr miss latency ((Tick/Count))
system.cpu.l1i.overallAvgMshrMissLatency::total 215051.887421                       # average overall mshr miss latency ((Tick/Count))
system.cpu.l1i.replacements                   6153519                       # number of replacements (Count)
system.cpu.l1i.HardPFReq.mshrMisses::cpu.l1i.prefetcher      4006202                       # number of HardPFReq MSHR misses (Count)
system.cpu.l1i.HardPFReq.mshrMisses::total      4006202                       # number of HardPFReq MSHR misses (Count)
system.cpu.l1i.HardPFReq.mshrMissLatency::cpu.l1i.prefetcher 880317289225                       # number of HardPFReq MSHR miss ticks (Tick)
system.cpu.l1i.HardPFReq.mshrMissLatency::total 880317289225                       # number of HardPFReq MSHR miss ticks (Tick)
system.cpu.l1i.HardPFReq.mshrMissRate::cpu.l1i.prefetcher          inf                       # mshr miss rate for HardPFReq accesses (Ratio)
system.cpu.l1i.HardPFReq.mshrMissRate::total          inf                       # mshr miss rate for HardPFReq accesses (Ratio)
system.cpu.l1i.HardPFReq.avgMshrMissLatency::cpu.l1i.prefetcher 219738.617580                       # average HardPFReq mshr miss latency ((Tick/Count))
system.cpu.l1i.HardPFReq.avgMshrMissLatency::total 219738.617580                       # average HardPFReq mshr miss latency ((Tick/Count))
system.cpu.l1i.ReadReq.hits::cpu.inst        80131267                       # number of ReadReq hits (Count)
system.cpu.l1i.ReadReq.hits::total           80131267                       # number of ReadReq hits (Count)
system.cpu.l1i.ReadReq.misses::cpu.inst       2222548                       # number of ReadReq misses (Count)
system.cpu.l1i.ReadReq.misses::total          2222548                       # number of ReadReq misses (Count)
system.cpu.l1i.ReadReq.missLatency::cpu.inst 477403064625                       # number of ReadReq miss ticks (Tick)
system.cpu.l1i.ReadReq.missLatency::total 477403064625                       # number of ReadReq miss ticks (Tick)
system.cpu.l1i.ReadReq.accesses::cpu.inst     82353815                       # number of ReadReq accesses(hits+misses) (Count)
system.cpu.l1i.ReadReq.accesses::total       82353815                       # number of ReadReq accesses(hits+misses) (Count)
system.cpu.l1i.ReadReq.missRate::cpu.inst     0.026988                       # miss rate for ReadReq accesses (Ratio)
system.cpu.l1i.ReadReq.missRate::total       0.026988                       # miss rate for ReadReq accesses (Ratio)
system.cpu.l1i.ReadReq.avgMissLatency::cpu.inst 214799.889417                       # average ReadReq miss latency ((Tick/Count))
system.cpu.l1i.ReadReq.avgMissLatency::total 214799.889417                       # average ReadReq miss latency ((Tick/Count))
system.cpu.l1i.ReadReq.mshrHits::cpu.inst        75228                       # number of ReadReq MSHR hits (Count)
system.cpu.l1i.ReadReq.mshrHits::total          75228                       # number of ReadReq MSHR hits (Count)
system.cpu.l1i.ReadReq.mshrMisses::cpu.inst      2147320                       # number of ReadReq MSHR misses (Count)
system.cpu.l1i.ReadReq.mshrMisses::total      2147320                       # number of ReadReq MSHR misses (Count)
system.cpu.l1i.ReadReq.mshrMissLatency::cpu.inst 443009231159                       # number of ReadReq MSHR miss ticks (Tick)
system.cpu.l1i.ReadReq.mshrMissLatency::total 443009231159                       # number of ReadReq MSHR miss ticks (Tick)
system.cpu.l1i.ReadReq.mshrMissRate::cpu.inst     0.026074                       # mshr miss rate for ReadReq accesses (Ratio)
system.cpu.l1i.ReadReq.mshrMissRate::total     0.026074                       # mshr miss rate for ReadReq accesses (Ratio)
system.cpu.l1i.ReadReq.avgMshrMissLatency::cpu.inst 206307.970474                       # average ReadReq mshr miss latency ((Tick/Count))
system.cpu.l1i.ReadReq.avgMshrMissLatency::total 206307.970474                       # average ReadReq mshr miss latency ((Tick/Count))
system.cpu.l1i.power_state.pwrStateResidencyTicks::UNDEFINED 2093850985750                       # Cumulative time (in ticks) in various power states (Tick)
system.cpu.l1i.prefetcher.demandMshrMisses      2147320                       # demands not covered by prefetchs (Count)
system.cpu.l1i.prefetcher.pfIssued            4171646                       # number of hwpf issued (Count)
system.cpu.l1i.prefetcher.pfUnused            1932282                       # number of HardPF blocks evicted w/o reference (Count)
system.cpu.l1i.prefetcher.pfUseful            1998691                       # number of useful prefetch (Count)
system.cpu.l1i.prefetcher.pfUsefulButMiss            0                       # number of hit on prefetch but cache block is not in an usable state (Count)
system.cpu.l1i.prefetcher.accuracy           0.479113                       # accuracy of the prefetcher (Count)
system.cpu.l1i.prefetcher.coverage           0.482076                       # coverage brought by this prefetcher (Count)
system.cpu.l1i.prefetcher.pfHitInCache         165338                       # number of prefetches hitting in cache (Count)
system.cpu.l1i.prefetcher.pfHitInMSHR               1                       # number of prefetches hitting in a MSHR (Count)
system.cpu.l1i.prefetcher.pfHitInWB               105                       # number of prefetches hit in the Write Buffer (Count)
system.cpu.l1i.prefetcher.pfLate               165444                       # number of late prefetches (hitting in cache, MSHR or WB) (Count)
system.cpu.l1i.prefetcher.pfIdentified        4171646                       # number of prefetch candidates identified (Count)
system.cpu.l1i.prefetcher.pfBufferHit               0                       # number of redundant prefetches already in prefetch queue (Count)
system.cpu.l1i.prefetcher.pfInCache                 0                       # number of redundant prefetches already in cache/mshr dropped (Count)
system.cpu.l1i.prefetcher.pfRemovedDemand            0                       # number of prefetches dropped due to a demand for the same address (Count)
system.cpu.l1i.prefetcher.pfRemovedFull             0                       # number of prefetches dropped due to prefetch queue size (Count)
system.cpu.l1i.prefetcher.pfSpanPage            49593                       # number of prefetches that crossed the page (Count)
system.cpu.l1i.prefetcher.pfUsefulSpanPage        33803                       # number of prefetches that is useful and crossed the page (Count)
system.cpu.l1i.prefetcher.power_state.pwrStateResidencyTicks::UNDEFINED 2093850985750                       # Cumulative time (in ticks) in various power states (Tick)
system.cpu.l1i.tags.tagsInUse                2.000000                       # Average ticks per tags in use ((Tick/Count))
system.cpu.l1i.tags.totalRefs                86284780                       # Total number of references to valid blocks. (Count)
system.cpu.l1i.tags.sampledRefs               6153519                       # Sample count of references to valid blocks. (Count)
system.cpu.l1i.tags.avgRefs                 14.022022                       # Average number of references to valid blocks. ((Count/Count))
system.cpu.l1i.tags.warmupTick                 199995                       # The tick when the warmup percentage was hit. (Tick)
system.cpu.l1i.tags.occupancies::cpu.inst     0.698915                       # Average occupied blocks per tick, per requestor ((Count/Tick))
system.cpu.l1i.tags.occupancies::cpu.l1i.prefetcher     1.301085                       # Average occupied blocks per tick, per requestor ((Count/Tick))
system.cpu.l1i.tags.avgOccs::cpu.inst        0.349457                       # Average percentage of cache occupancy ((Ratio/Tick))
system.cpu.l1i.tags.avgOccs::cpu.l1i.prefetcher     0.650542                       # Average percentage of cache occupancy ((Ratio/Tick))
system.cpu.l1i.tags.avgOccs::total           1.000000                       # Average percentage of cache occupancy ((Ratio/Tick))
system.cpu.l1i.tags.occupanciesTaskId::1024            2                       # Occupied blocks per task id (Count)
system.cpu.l1i.tags.ageTaskId_1024::0               2                       # Occupied blocks per task id, per block age (Count)
system.cpu.l1i.tags.ratioOccsTaskId::1024            1                       # Ratio of occupied blocks and all blocks, per task id (Ratio)
system.cpu.l1i.tags.tagAccesses             170861151                       # Number of tag accesses (Count)
system.cpu.l1i.tags.dataAccesses            170861151                       # Number of data accesses (Count)
system.cpu.l1i.tags.power_state.pwrStateResidencyTicks::UNDEFINED 2093850985750                       # Cumulative time (in ticks) in various power states (Tick)
system.cpu.mmu.dtb.rdAccesses                14637994                       # TLB accesses on read requests (Count)
system.cpu.mmu.dtb.wrAccesses                 8091106                       # TLB accesses on write requests (Count)
system.cpu.mmu.dtb.rdMisses                      1942                       # TLB misses on read requests (Count)
system.cpu.mmu.dtb.wrMisses                       761                       # TLB misses on write requests (Count)
system.cpu.mmu.dtb.walker.power_state.pwrStateResidencyTicks::UNDEFINED 2093850985750                       # Cumulative time (in ticks) in various power states (Tick)
system.cpu.mmu.itb.rdAccesses                       0                       # TLB accesses on read requests (Count)
system.cpu.mmu.itb.wrAccesses                82353959                       # TLB accesses on write requests (Count)
system.cpu.mmu.itb.rdMisses                         0                       # TLB misses on read requests (Count)
system.cpu.mmu.itb.wrMisses                      4854                       # TLB misses on write requests (Count)
system.cpu.mmu.itb.walker.power_state.pwrStateResidencyTicks::UNDEFINED 2093850985750                       # Cumulative time (in ticks) in various power states (Tick)
system.cpu.power_state.pwrStateResidencyTicks::ON 2093850985750                       # Cumulative time (in ticks) in various power states (Tick)
system.cpu.thread_0.numInsts                        0                       # Number of Instructions committed (Count)
system.cpu.thread_0.numOps                          0                       # Number of Ops committed (Count)
system.cpu.thread_0.numMemRefs                      0                       # Number of Memory References (Count)
system.cpu.workload.numSyscalls                  1642                       # Number of system calls (Count)
system.mem_ctrl.avgPriority_writebacks::samples    311664.00                       # Average QoS priority value for accepted requests (Count)
system.mem_ctrl.avgPriority_cpu.inst::samples   2147320.00                       # Average QoS priority value for accepted requests (Count)
system.mem_ctrl.avgPriority_cpu.data::samples    408900.00                       # Average QoS priority value for accepted requests (Count)
system.mem_ctrl.avgPriority_cpu.l1d.prefetcher::samples    459316.00                       # Average QoS priority value for accepted requests (Count)
system.mem_ctrl.avgPriority_cpu.l1i.prefetcher::samples   4006202.00                       # Average QoS priority value for accepted requests (Count)
system.mem_ctrl.priorityMinLatency       0.000000018750                       # per QoS priority minimum request to response latency (Second)
system.mem_ctrl.priorityMaxLatency       0.007694160142                       # per QoS priority maximum request to response latency (Second)
system.mem_ctrl.numReadWriteTurnArounds         17357                       # Number of turnarounds from READ to WRITE (Count)
system.mem_ctrl.numWriteReadTurnArounds         17357                       # Number of turnarounds from WRITE to READ (Count)
system.mem_ctrl.numStayReadState             15067546                       # Number of times bus staying in READ state (Count)
system.mem_ctrl.numStayWriteState              294676                       # Number of times bus staying in WRITE state (Count)
system.mem_ctrl.readReqs                      7386443                       # Number of read requests accepted (Count)
system.mem_ctrl.writeReqs                      497975                       # Number of write requests accepted (Count)
system.mem_ctrl.readBursts                    7386443                       # Number of controller read bursts, including those serviced by the write queue (Count)
system.mem_ctrl.writeBursts                    497975                       # Number of controller write bursts, including those merged in the write queue (Count)
system.mem_ctrl.servicedByWrQ                  364705                       # Number of controller read bursts serviced by the write queue (Count)
system.mem_ctrl.mergedWrBursts                 186311                       # Number of controller write bursts merged with an existing one (Count)
system.mem_ctrl.neitherReadNorWriteReqs             0                       # Number of requests that are neither read nor write (Count)
system.mem_ctrl.avgRdQLen                        1.45                       # Average read queue length when enqueuing ((Count/Tick))
system.mem_ctrl.avgWrQLen                       24.93                       # Average write queue length when enqueuing ((Count/Tick))
system.mem_ctrl.numRdRetry                          0                       # Number of times read queue was full causing retry (Count)
system.mem_ctrl.numWrRetry                          0                       # Number of times write queue was full causing retry (Count)
system.mem_ctrl.readPktSize::0                      0                       # Read request sizes (log2) (Count)
system.mem_ctrl.readPktSize::1                      0                       # Read request sizes (log2) (Count)
system.mem_ctrl.readPktSize::2                      0                       # Read request sizes (log2) (Count)
system.mem_ctrl.readPktSize::3                      0                       # Read request sizes (log2) (Count)
system.mem_ctrl.readPktSize::4                      0                       # Read request sizes (log2) (Count)
system.mem_ctrl.readPktSize::5                      0                       # Read request sizes (log2) (Count)
system.mem_ctrl.readPktSize::6                7386443                       # Read request sizes (log2) (Count)
system.mem_ctrl.writePktSize::0                     0                       # Write request sizes (log2) (Count)
system.mem_ctrl.writePktSize::1                     0                       # Write request sizes (log2) (Count)
system.mem_ctrl.writePktSize::2                     0                       # Write request sizes (log2) (Count)
system.mem_ctrl.writePktSize::3                     0                       # Write request sizes (log2) (Count)
system.mem_ctrl.writePktSize::4                     0                       # Write request sizes (log2) (Count)
system.mem_ctrl.writePktSize::5                     0                       # Write request sizes (log2) (Count)
system.mem_ctrl.writePktSize::6                497975                       # Write request sizes (log2) (Count)
system.mem_ctrl.rdQLenPdf::0                  4789946                       # What read queue length does an incoming req see (Count)
system.mem_ctrl.rdQLenPdf::1                  2200489                       # What read queue length does an incoming req see (Count)
system.mem_ctrl.rdQLenPdf::2                    31054                       # What read queue length does an incoming req see (Count)
system.mem_ctrl.rdQLenPdf::3                      249                       # What read queue length does an incoming req see (Count)
system.mem_ctrl.rdQLenPdf::4                        0                       # What read queue length does an incoming req see (Count)
system.mem_ctrl.rdQLenPdf::5                        0                       # What read queue length does an incoming req see (Count)
system.mem_ctrl.rdQLenPdf::6                        0                       # What read queue length does an incoming req see (Count)
system.mem_ctrl.rdQLenPdf::7                        0                       # What read queue length does an incoming req see (Count)
system.mem_ctrl.rdQLenPdf::8                        0                       # What read queue length does an incoming req see (Count)
system.mem_ctrl.rdQLenPdf::9                        0                       # What read queue length does an incoming req see (Count)
system.mem_ctrl.rdQLenPdf::10                       0                       # What read queue length does an incoming req see (Count)
system.mem_ctrl.rdQLenPdf::11                       0                       # What read queue length does an incoming req see (Count)
system.mem_ctrl.rdQLenPdf::12                       0                       # What read queue length does an incoming req see (Count)
system.mem_ctrl.rdQLenPdf::13                       0                       # What read queue length does an incoming req see (Count)
system.mem_ctrl.rdQLenPdf::14                       0                       # What read queue length does an incoming req see (Count)
system.mem_ctrl.rdQLenPdf::15                       0                       # What read queue length does an incoming req see (Count)
system.mem_ctrl.rdQLenPdf::16                       0                       # What read queue length does an incoming req see (Count)
system.mem_ctrl.rdQLenPdf::17                       0                       # What read queue length does an incoming req see (Count)
system.mem_ctrl.rdQLenPdf::18                       0                       # What read queue length does an incoming req see (Count)
system.mem_ctrl.rdQLenPdf::19                       0                       # What read queue length does an incoming req see (Count)
system.mem_ctrl.rdQLenPdf::20                       0                       # What read queue length does an incoming req see (Count)
system.mem_ctrl.rdQLenPdf::21                       0                       # What read queue length does an incoming req see (Count)
system.mem_ctrl.rdQLenPdf::22                       0                       # What read queue length does an incoming req see (Count)
system.mem_ctrl.rdQLenPdf::23                       0                       # What read queue length does an incoming req see (Count)
system.mem_ctrl.rdQLenPdf::24                       0                       # What read queue length does an incoming req see (Count)
system.mem_ctrl.rdQLenPdf::25                       0                       # What read queue length does an incoming req see (Count)
system.mem_ctrl.rdQLenPdf::26                       0                       # What read queue length does an incoming req see (Count)
system.mem_ctrl.rdQLenPdf::27                       0                       # What read queue length does an incoming req see (Count)
system.mem_ctrl.rdQLenPdf::28                       0                       # What read queue length does an incoming req see (Count)
system.mem_ctrl.rdQLenPdf::29                       0                       # What read queue length does an incoming req see (Count)
system.mem_ctrl.rdQLenPdf::30                       0                       # What read queue length does an incoming req see (Count)
system.mem_ctrl.rdQLenPdf::31                       0                       # What read queue length does an incoming req see (Count)
system.mem_ctrl.wrQLenPdf::0                        1                       # What write queue length does an incoming req see (Count)
system.mem_ctrl.wrQLenPdf::1                        1                       # What write queue length does an incoming req see (Count)
system.mem_ctrl.wrQLenPdf::2                        1                       # What write queue length does an incoming req see (Count)
system.mem_ctrl.wrQLenPdf::3                        1                       # What write queue length does an incoming req see (Count)
system.mem_ctrl.wrQLenPdf::4                        1                       # What write queue length does an incoming req see (Count)
system.mem_ctrl.wrQLenPdf::5                        1                       # What write queue length does an incoming req see (Count)
system.mem_ctrl.wrQLenPdf::6                        1                       # What write queue length does an incoming req see (Count)
system.mem_ctrl.wrQLenPdf::7                        1                       # What write queue length does an incoming req see (Count)
system.mem_ctrl.wrQLenPdf::8                        1                       # What write queue length does an incoming req see (Count)
system.mem_ctrl.wrQLenPdf::9                        1                       # What write queue length does an incoming req see (Count)
system.mem_ctrl.wrQLenPdf::10                       1                       # What write queue length does an incoming req see (Count)
system.mem_ctrl.wrQLenPdf::11                       1                       # What write queue length does an incoming req see (Count)
system.mem_ctrl.wrQLenPdf::12                       1                       # What write queue length does an incoming req see (Count)
system.mem_ctrl.wrQLenPdf::13                       1                       # What write queue length does an incoming req see (Count)
system.mem_ctrl.wrQLenPdf::14                       1                       # What write queue length does an incoming req see (Count)
system.mem_ctrl.wrQLenPdf::15                   16338                       # What write queue length does an incoming req see (Count)
system.mem_ctrl.wrQLenPdf::16                   17276                       # What write queue length does an incoming req see (Count)
system.mem_ctrl.wrQLenPdf::17                   17513                       # What write queue length does an incoming req see (Count)
system.mem_ctrl.wrQLenPdf::18                   17407                       # What write queue length does an incoming req see (Count)
system.mem_ctrl.wrQLenPdf::19                   17379                       # What write queue length does an incoming req see (Count)
system.mem_ctrl.wrQLenPdf::20                   17374                       # What write queue length does an incoming req see (Count)
system.mem_ctrl.wrQLenPdf::21                   17360                       # What write queue length does an incoming req see (Count)
system.mem_ctrl.wrQLenPdf::22                   17364                       # What write queue length does an incoming req see (Count)
system.mem_ctrl.wrQLenPdf::23                   17359                       # What write queue length does an incoming req see (Count)
system.mem_ctrl.wrQLenPdf::24                   17368                       # What write queue length does an incoming req see (Count)
system.mem_ctrl.wrQLenPdf::25                   17359                       # What write queue length does an incoming req see (Count)
system.mem_ctrl.wrQLenPdf::26                   17358                       # What write queue length does an incoming req see (Count)
system.mem_ctrl.wrQLenPdf::27                   17364                       # What write queue length does an incoming req see (Count)
system.mem_ctrl.wrQLenPdf::28                   17357                       # What write queue length does an incoming req see (Count)
system.mem_ctrl.wrQLenPdf::29                   17357                       # What write queue length does an incoming req see (Count)
system.mem_ctrl.wrQLenPdf::30                   17357                       # What write queue length does an incoming req see (Count)
system.mem_ctrl.wrQLenPdf::31                   17357                       # What write queue length does an incoming req see (Count)
system.mem_ctrl.wrQLenPdf::32                   17357                       # What write queue length does an incoming req see (Count)
system.mem_ctrl.wrQLenPdf::33                      45                       # What write queue length does an incoming req see (Count)
system.mem_ctrl.wrQLenPdf::34                       0                       # What write queue length does an incoming req see (Count)
system.mem_ctrl.wrQLenPdf::35                       0                       # What write queue length does an incoming req see (Count)
system.mem_ctrl.wrQLenPdf::36                       0                       # What write queue length does an incoming req see (Count)
system.mem_ctrl.wrQLenPdf::37                       0                       # What write queue length does an incoming req see (Count)
system.mem_ctrl.wrQLenPdf::38                       0                       # What write queue length does an incoming req see (Count)
system.mem_ctrl.wrQLenPdf::39                       0                       # What write queue length does an incoming req see (Count)
system.mem_ctrl.wrQLenPdf::40                       0                       # What write queue length does an incoming req see (Count)
system.mem_ctrl.wrQLenPdf::41                       0                       # What write queue length does an incoming req see (Count)
system.mem_ctrl.wrQLenPdf::42                       0                       # What write queue length does an incoming req see (Count)
system.mem_ctrl.wrQLenPdf::43                       0                       # What write queue length does an incoming req see (Count)
system.mem_ctrl.wrQLenPdf::44                       0                       # What write queue length does an incoming req see (Count)
system.mem_ctrl.wrQLenPdf::45                       0                       # What write queue length does an incoming req see (Count)
system.mem_ctrl.wrQLenPdf::46                       0                       # What write queue length does an incoming req see (Count)
system.mem_ctrl.wrQLenPdf::47                       0                       # What write queue length does an incoming req see (Count)
system.mem_ctrl.wrQLenPdf::48                       0                       # What write queue length does an incoming req see (Count)
system.mem_ctrl.wrQLenPdf::49                       0                       # What write queue length does an incoming req see (Count)
system.mem_ctrl.wrQLenPdf::50                       0                       # What write queue length does an incoming req see (Count)
system.mem_ctrl.wrQLenPdf::51                       0                       # What write queue length does an incoming req see (Count)
system.mem_ctrl.wrQLenPdf::52                       0                       # What write queue length does an incoming req see (Count)
system.mem_ctrl.wrQLenPdf::53                       0                       # What write queue length does an incoming req see (Count)
system.mem_ctrl.wrQLenPdf::54                       0                       # What write queue length does an incoming req see (Count)
system.mem_ctrl.wrQLenPdf::55                       0                       # What write queue length does an incoming req see (Count)
system.mem_ctrl.wrQLenPdf::56                       0                       # What write queue length does an incoming req see (Count)
system.mem_ctrl.wrQLenPdf::57                       0                       # What write queue length does an incoming req see (Count)
system.mem_ctrl.wrQLenPdf::58                       0                       # What write queue length does an incoming req see (Count)
system.mem_ctrl.wrQLenPdf::59                       0                       # What write queue length does an incoming req see (Count)
system.mem_ctrl.wrQLenPdf::60                       0                       # What write queue length does an incoming req see (Count)
system.mem_ctrl.wrQLenPdf::61                       0                       # What write queue length does an incoming req see (Count)
system.mem_ctrl.wrQLenPdf::62                       0                       # What write queue length does an incoming req see (Count)
system.mem_ctrl.wrQLenPdf::63                       0                       # What write queue length does an incoming req see (Count)
system.mem_ctrl.rdPerTurnAround::samples        17357                       # Reads before turning the bus around for writes (Count)
system.mem_ctrl.rdPerTurnAround::mean      404.546235                       # Reads before turning the bus around for writes (Count)
system.mem_ctrl.rdPerTurnAround::gmean     246.814634                       # Reads before turning the bus around for writes (Count)
system.mem_ctrl.rdPerTurnAround::stdev     466.903482                       # Reads before turning the bus around for writes (Count)
system.mem_ctrl.rdPerTurnAround::0-511          12782     73.64%     73.64% # Reads before turning the bus around for writes (Count)
system.mem_ctrl.rdPerTurnAround::512-1023         2979     17.16%     90.80% # Reads before turning the bus around for writes (Count)
system.mem_ctrl.rdPerTurnAround::1024-1535         1023      5.89%     96.70% # Reads before turning the bus around for writes (Count)
system.mem_ctrl.rdPerTurnAround::1536-2047          354      2.04%     98.74% # Reads before turning the bus around for writes (Count)
system.mem_ctrl.rdPerTurnAround::2048-2559          116      0.67%     99.41% # Reads before turning the bus around for writes (Count)
system.mem_ctrl.rdPerTurnAround::2560-3071           77      0.44%     99.85% # Reads before turning the bus around for writes (Count)
system.mem_ctrl.rdPerTurnAround::3072-3583            9      0.05%     99.90% # Reads before turning the bus around for writes (Count)
system.mem_ctrl.rdPerTurnAround::3584-4095            7      0.04%     99.94% # Reads before turning the bus around for writes (Count)
system.mem_ctrl.rdPerTurnAround::4096-4607            4      0.02%     99.97% # Reads before turning the bus around for writes (Count)
system.mem_ctrl.rdPerTurnAround::4608-5119            1      0.01%     99.97% # Reads before turning the bus around for writes (Count)
system.mem_ctrl.rdPerTurnAround::5120-5631            1      0.01%     99.98% # Reads before turning the bus around for writes (Count)
system.mem_ctrl.rdPerTurnAround::5632-6143            1      0.01%     99.98% # Reads before turning the bus around for writes (Count)
system.mem_ctrl.rdPerTurnAround::7680-8191            1      0.01%     99.99% # Reads before turning the bus around for writes (Count)
system.mem_ctrl.rdPerTurnAround::8192-8703            1      0.01%     99.99% # Reads before turning the bus around for writes (Count)
system.mem_ctrl.rdPerTurnAround::10240-10751            1      0.01%    100.00% # Reads before turning the bus around for writes (Count)
system.mem_ctrl.rdPerTurnAround::total          17357                       # Reads before turning the bus around for writes (Count)
system.mem_ctrl.wrPerTurnAround::samples        17357                       # Writes before turning the bus around for reads (Count)
system.mem_ctrl.wrPerTurnAround::mean       17.955234                       # Writes before turning the bus around for reads (Count)
system.mem_ctrl.wrPerTurnAround::gmean      17.950697                       # Writes before turning the bus around for reads (Count)
system.mem_ctrl.wrPerTurnAround::stdev       0.395601                       # Writes before turning the bus around for reads (Count)
system.mem_ctrl.wrPerTurnAround::16               385      2.22%      2.22% # Writes before turning the bus around for reads (Count)
system.mem_ctrl.wrPerTurnAround::17               609      3.51%      5.73% # Writes before turning the bus around for reads (Count)
system.mem_ctrl.wrPerTurnAround::18             15761     90.80%     96.53% # Writes before turning the bus around for reads (Count)
system.mem_ctrl.wrPerTurnAround::19               602      3.47%    100.00% # Writes before turning the bus around for reads (Count)
[...]
system.mem_ctrl.dram.bwInstRead::total       81288735                       # Instruction read bandwidth from this memory ((Byte/Second))
system.mem_ctrl.dram.bwWrite::writebacks     23251002                       # Write bandwidth from this memory ((Byte/Second))
system.mem_ctrl.dram.bwWrite::total          23251002                       # Write bandwidth from this memory ((Byte/Second))
system.mem_ctrl.dram.bwTotal::writebacks     23251002                       # Total bandwidth to/from this memory ((Byte/Second))
system.mem_ctrl.dram.bwTotal::cpu.inst       81288735                       # Total bandwidth to/from this memory ((Byte/Second))
system.mem_ctrl.dram.bwTotal::cpu.data       55613883                       # Total bandwidth to/from this memory ((Byte/Second))
system.mem_ctrl.dram.bwTotal::cpu.l1d.prefetcher     53055375                       # Total bandwidth to/from this memory ((Byte/Second))
system.mem_ctrl.dram.bwTotal::cpu.l1i.prefetcher    141705432                       # Total bandwidth to/from this memory ((Byte/Second))
system.mem_ctrl.dram.bwTotal::total         354914427                       # Total bandwidth to/from this memory ((Byte/Second))
system.mem_ctrl.dram.readBursts                  7063                       # Number of DRAM read bursts (Count)
system.mem_ctrl.dram.writeBursts                  342                       # Number of DRAM write bursts (Count)
system.mem_ctrl.dram.perBankRdBursts::0           498                       # Per bank write bursts (Count)
system.mem_ctrl.dram.perBankRdBursts::1           180                       # Per bank write bursts (Count)
system.mem_ctrl.dram.perBankRdBursts::2           194                       # Per bank write bursts (Count)
system.mem_ctrl.dram.perBankRdBursts::3           346                       # Per bank write bursts (Count)
system.mem_ctrl.dram.perBankRdBursts::4           361                       # Per bank write bursts (Count)
system.mem_ctrl.dram.perBankRdBursts::5           980                       # Per bank write bursts (Count)
system.mem_ctrl.dram.perBankRdBursts::6           571                       # Per bank write bursts (Count)
system.mem_ctrl.dram.perBankRdBursts::7           696                       # Per bank write bursts (Count)
system.mem_ctrl.dram.perBankRdBursts::8           218                       # Per bank write bursts (Count)
system.mem_ctrl.dram.perBankRdBursts::9           300                       # Per bank write bursts (Count)
system.mem_ctrl.dram.perBankRdBursts::10          345                       # Per bank write bursts (Count)
system.mem_ctrl.dram.perBankRdBursts::11          456                       # Per bank write bursts (Count)
system.mem_ctrl.dram.perBankRdBursts::12          427                       # Per bank write bursts (Count)
system.mem_ctrl.dram.perBankRdBursts::13          408                       # Per bank write bursts (Count)
system.mem_ctrl.dram.perBankRdBursts::14          910                       # Per bank write bursts (Count)
system.mem_ctrl.dram.perBankRdBursts::15          173                       # Per bank write bursts (Count)
system.mem_ctrl.dram.perBankWrBursts::0            14                       # Per bank write bursts (Count)
system.mem_ctrl.dram.perBankWrBursts::1             5                       # Per bank write bursts (Count)
system.mem_ctrl.dram.perBankWrBursts::2             1                       # Per bank write bursts (Count)
system.mem_ctrl.dram.perBankWrBursts::3            14                       # Per bank write bursts (Count)
system.mem_ctrl.dram.perBankWrBursts::4             9                       # Per bank write bursts (Count)
system.mem_ctrl.dram.perBankWrBursts::5            15                       # Per bank write bursts (Count)
system.mem_ctrl.dram.perBankWrBursts::6           137                       # Per bank write bursts (Count)
system.mem_ctrl.dram.perBankWrBursts::7            45                       # Per bank write bursts (Count)
system.mem_ctrl.dram.perBankWrBursts::8             0                       # Per bank write bursts (Count)
system.mem_ctrl.dram.perBankWrBursts::9             4                       # Per bank write bursts (Count)
system.mem_ctrl.dram.perBankWrBursts::10           32                       # Per bank write bursts (Count)
system.mem_ctrl.dram.perBankWrBursts::11           38                       # Per bank write bursts (Count)
system.mem_ctrl.dram.perBankWrBursts::12            4                       # Per bank write bursts (Count)
system.mem_ctrl.dram.perBankWrBursts::13            3                       # Per bank write bursts (Count)
system.mem_ctrl.dram.perBankWrBursts::14           21                       # Per bank write bursts (Count)
system.mem_ctrl.dram.perBankWrBursts::15            0                       # Per bank write bursts (Count)
system.mem_ctrl.dram.totQLat                 81146600                       # Total ticks spent queuing (Tick)
system.mem_ctrl.dram.totBusLat               35315000                       # Total ticks spent in databus transfers (Tick)
system.mem_ctrl.dram.totMemAccLat           213577850                       # Total ticks spent from burst creation until serviced by the DRAM (Tick)
system.mem_ctrl.dram.avgQLat                 11488.97                       # Average queueing delay per DRAM burst ((Tick/Count))
system.mem_ctrl.dram.avgBusLat                5000.00                       # Average bus latency per DRAM burst ((Tick/Count))
system.mem_ctrl.dram.avgMemAccLat            30238.97                       # Average memory access latency per DRAM burst ((Tick/Count))
system.mem_ctrl.dram.readRowHits                 5218                       # Number of row buffer hits during reads (Count)
system.mem_ctrl.dram.writeRowHits                 256                       # Number of row buffer hits during writes (Count)
system.mem_ctrl.dram.readRowHitRate             73.88                       # Row buffer hit rate for reads (Ratio)
system.mem_ctrl.dram.writeRowHitRate            74.85                       # Row buffer hit rate for writes (Ratio)
system.mem_ctrl.dram.bytesPerActivate::samples         1933                       # Bytes accessed per row activation (Byte)
system.mem_ctrl.dram.bytesPerActivate::mean   245.504397                       # Bytes accessed per row activation (Byte)
system.mem_ctrl.dram.bytesPerActivate::gmean   181.582372                       # Bytes accessed per row activation (Byte)
system.mem_ctrl.dram.bytesPerActivate::stdev   226.185207                       # Bytes accessed per row activation (Byte)
system.mem_ctrl.dram.bytesPerActivate::0-127          298     15.42%     15.42% # Bytes accessed per row activation (Byte)
system.mem_ctrl.dram.bytesPerActivate::128-255          967     50.03%     65.44% # Bytes accessed per row activation (Byte)
system.mem_ctrl.dram.bytesPerActivate::256-383          283     14.64%     80.08% # Bytes accessed per row activation (Byte)
system.mem_ctrl.dram.bytesPerActivate::384-511          156      8.07%     88.15% # Bytes accessed per row activation (Byte)
system.mem_ctrl.dram.bytesPerActivate::512-639           58      3.00%     91.15% # Bytes accessed per row activation (Byte)
system.mem_ctrl.dram.bytesPerActivate::640-767           55      2.85%     94.00% # Bytes accessed per row activation (Byte)
system.mem_ctrl.dram.bytesPerActivate::768-895           28      1.45%     95.45% # Bytes accessed per row activation (Byte)
system.mem_ctrl.dram.bytesPerActivate::896-1023           20      1.03%     96.48% # Bytes accessed per row activation (Byte)
system.mem_ctrl.dram.bytesPerActivate::1024-1151           68      3.52%    100.00% # Bytes accessed per row activation (Byte)
system.mem_ctrl.dram.bytesPerActivate::total         1933                       # Bytes accessed per row activation (Byte)
system.mem_ctrl.dram.dramBytesRead             452032                       # Total bytes read (Byte)
system.mem_ctrl.dram.dramBytesWritten           21888                       # Total bytes written (Byte)
system.mem_ctrl.dram.avgRdBW               317.030555                       # Average DRAM read bandwidth in MiBytes/s ((Byte/Second))
system.mem_ctrl.dram.avgWrBW                15.351048                       # Average DRAM write bandwidth in MiBytes/s ((Byte/Second))
system.mem_ctrl.dram.peakBW                  12800.00                       # Theoretical peak bandwidth in MiByte/s ((Byte/Second))
system.mem_ctrl.dram.busUtil                     2.60                       # Data bus utilization in percentage (Ratio)
system.mem_ctrl.dram.busUtilRead                 2.48                       # Data bus utilization in percentage for reads (Ratio)
system.mem_ctrl.dram.busUtilWrite                0.12                       # Data bus utilization in percentage for writes (Ratio)
system.mem_ctrl.dram.pageHitRate                73.92                       # Row buffer hit rate, read and write combined (Ratio)
system.mem_ctrl.dram.power_state.pwrStateResidencyTicks::UNDEFINED   1425831020                       # Cumulative time (in ticks) in various power states (Tick)
system.mem_ctrl.dram.rank0.actEnergy          8018220                       # Energy for activate commands per rank (pJ) (Joule)
system.mem_ctrl.dram.rank0.preEnergy          4273170                       # Energy for precharge commands per rank (pJ) (Joule)
system.mem_ctrl.dram.rank0.readEnergy        27317640                       # Energy for read commands per rank (pJ) (Joule)
system.mem_ctrl.dram.rank0.writeEnergy        1252800                       # Energy for write commands per rank (pJ) (Joule)
system.mem_ctrl.dram.rank0.refreshEnergy 112479120.000000                       # Energy for refresh commands per rank (pJ) (Joule)
system.mem_ctrl.dram.rank0.actBackEnergy    597018000                       # Energy for active background per rank (pJ) (Joule)
system.mem_ctrl.dram.rank0.preBackEnergy     44766720                       # Energy for precharge background per rank (pJ) (Joule)
system.mem_ctrl.dram.rank0.actPowerDownEnergy            0                       # Energy for active power-down per rank (pJ) (Joule)
system.mem_ctrl.dram.rank0.prePowerDownEnergy            0                       # Energy for precharge power-down per rank (pJ) (Joule)
system.mem_ctrl.dram.rank0.selfRefreshEnergy            0                       # Energy for self refresh per rank (pJ) (Joule)
system.mem_ctrl.dram.rank0.totalEnergy      795125670                       # Total energy per rank (pJ) (Joule)
system.mem_ctrl.dram.rank0.averagePower    557.657716                       # Core power per rank (mW) (Watt)
system.mem_ctrl.dram.rank0.totalIdleTime            0                       # Total Idle time Per DRAM Rank (Tick)
system.mem_ctrl.dram.rank0.pwrStateTime::IDLE    111113410                       # Time in different power states (Tick)
system.mem_ctrl.dram.rank0.pwrStateTime::REF     47580000                       # Time in different power states (Tick)
system.mem_ctrl.dram.rank0.pwrStateTime::SREF            0                       # Time in different power states (Tick)
system.mem_ctrl.dram.rank0.pwrStateTime::PRE_PDN            0                       # Time in different power states (Tick)
system.mem_ctrl.dram.rank0.pwrStateTime::ACT   1267137610                       # Time in different power states (Tick)
system.mem_ctrl.dram.rank0.pwrStateTime::ACT_PDN            0                       # Time in different power states (Tick)
system.mem_ctrl.dram.rank1.actEnergy          5769120                       # Energy for activate commands per rank (pJ) (Joule)
system.mem_ctrl.dram.rank1.preEnergy          3062565                       # Energy for precharge commands per rank (pJ) (Joule)
system.mem_ctrl.dram.rank1.readEnergy        23112180                       # Energy for read commands per rank (pJ) (Joule)
system.mem_ctrl.dram.rank1.writeEnergy         532440                       # Energy for write commands per rank (pJ) (Joule)
system.mem_ctrl.dram.rank1.refreshEnergy 112479120.000000                       # Energy for refresh commands per rank (pJ) (Joule)
system.mem_ctrl.dram.rank1.actBackEnergy    555033510                       # Energy for active background per rank (pJ) (Joule)
system.mem_ctrl.dram.rank1.preBackEnergy     80122080                       # Energy for precharge background per rank (pJ) (Joule)
system.mem_ctrl.dram.rank1.actPowerDownEnergy            0                       # Energy for active power-down per rank (pJ) (Joule)
system.mem_ctrl.dram.rank1.prePowerDownEnergy            0                       # Energy for precharge power-down per rank (pJ) (Joule)
system.mem_ctrl.dram.rank1.selfRefreshEnergy            0                       # Energy for self refresh per rank (pJ) (Joule)
system.mem_ctrl.dram.rank1.totalEnergy      780111015                       # Total energy per rank (pJ) (Joule)
system.mem_ctrl.dram.rank1.averagePower    547.127257                       # Core power per rank (mW) (Watt)
system.mem_ctrl.dram.rank1.totalIdleTime            0                       # Total Idle time Per DRAM Rank (Tick)
system.mem_ctrl.dram.rank1.pwrStateTime::IDLE    203399886                       # Time in different power states (Tick)
system.mem_ctrl.dram.rank1.pwrStateTime::REF     47580000                       # Time in different power states (Tick)
system.mem_ctrl.dram.rank1.pwrStateTime::SREF            0                       # Time in different power states (Tick)
system.mem_ctrl.dram.rank1.pwrStateTime::PRE_PDN            0                       # Time in different power states (Tick)
system.mem_ctrl.dram.rank1.pwrStateTime::ACT   1174851134                       # Time in different power states (Tick)
system.mem_ctrl.dram.rank1.pwrStateTime::ACT_PDN            0                       # Time in different power states (Tick)
system.mem_ctrl.power_state.pwrStateResidencyTicks::UNDEFINED   1425831020                       # Cumulative time (in ticks) in various power states (Tick)
system.membus.transDist::ReadResp                7233                       # Transaction distribution (Count)
system.membus.transDist::WritebackDirty           518                       # Transaction distribution (Count)
system.membus.transDist::CleanEvict              6872                       # Transaction distribution (Count)
system.membus.transDist::ReadExReq                157                       # Transaction distribution (Count)
system.membus.transDist::ReadExResp               157                       # Transaction distribution (Count)
system.membus.transDist::ReadSharedReq           7232                       # Transaction distribution (Count)
system.membus.pktCount_system.cpu.l1d.mem_side_port::system.mem_ctrl.port         7263                       # Packet count per connected requestor and responder (Count)
system.membus.pktCount_system.cpu.l1d.mem_side_port::total         7263                       # Packet count per connected requestor and responder (Count)
system.membus.pktCount_system.cpu.l1i.mem_side_port::system.mem_ctrl.port        14906                       # Packet count per connected requestor and responder (Count)
system.membus.pktCount_system.cpu.l1i.mem_side_port::total        14906                       # Packet count per connected requestor and responder (Count)
system.membus.pktCount::total                   22169                       # Packet count per connected requestor and responder (Count)
system.membus.pktSize_system.cpu.l1d.mem_side_port::system.mem_ctrl.port       188096                       # Cumulative packet size per connected requestor and responder (Byte)
system.membus.pktSize_system.cpu.l1d.mem_side_port::total       188096                       # Cumulative packet size per connected requestor and responder (Byte)
system.membus.pktSize_system.cpu.l1i.mem_side_port::system.mem_ctrl.port       318016                       # Cumulative packet size per connected requestor and responder (Byte)
system.membus.pktSize_system.cpu.l1i.mem_side_port::total       318016                       # Cumulative packet size per connected requestor and responder (Byte)
system.membus.pktSize::total                   506112                       # Cumulative packet size per connected requestor and responder (Byte)
system.membus.snoops                                0                       # Total snoops (Count)
system.membus.snoopTraffic                          0                       # Total snoop traffic (Byte)
system.membus.snoopFanout::samples               7389                       # Request fanout histogram (Count)
system.membus.snoopFanout::mean                     0                       # Request fanout histogram (Count)
system.membus.snoopFanout::stdev                    0                       # Request fanout histogram (Count)
system.membus.snoopFanout::underflows               0      0.00%      0.00% # Request fanout histogram (Count)
system.membus.snoopFanout::0                     7389    100.00%    100.00% # Request fanout histogram (Count)
system.membus.snoopFanout::1                        0      0.00%    100.00% # Request fanout histogram (Count)
system.membus.snoopFanout::2                        0      0.00%    100.00% # Request fanout histogram (Count)
system.membus.snoopFanout::overflows                0      0.00%    100.00% # Request fanout histogram (Count)
system.membus.snoopFanout::min_value                0                       # Request fanout histogram (Count)
system.membus.snoopFanout::max_value                0                       # Request fanout histogram (Count)
system.membus.snoopFanout::total                 7389                       # Request fanout histogram (Count)
system.membus.power_state.pwrStateResidencyTicks::UNDEFINED   1425831020                       # Cumulative time (in ticks) in various power states (Tick)
system.membus.reqLayer2.occupancy           224674383                       # Layer occupancy (ticks) (Tick)
system.membus.reqLayer2.utilization               0.2                       # Layer utilization (Ratio)
system.membus.respLayer1.occupancy          163750247                       # Layer occupancy (ticks) (Tick)
system.membus.respLayer1.utilization              0.1                       # Layer utilization (Ratio)
system.membus.respLayer2.occupancy          335260875                       # Layer occupancy (ticks) (Tick)
system.membus.respLayer2.utilization              0.2                       # Layer utilization (Ratio)
system.membus.snoop_filter.totRequests          14779                       # Total number of requests made to the snoop filter. (Count)
system.membus.snoop_filter.hitSingleRequests         7390                       # Number of requests hitting in the snoop filter with a single holder of the requested data. (Count)
system.membus.snoop_filter.hitMultiRequests            0                       # Number of requests hitting in the snoop filter with multiple (>1) holders of the requested data. (Count)
system.membus.snoop_filter.totSnoops                0                       # Total number of snoops made to the snoop filter. (Count)
system.membus.snoop_filter.hitSingleSnoops            0                       # Number of snoops hitting in the snoop filter with a single holder of the requested data. (Count)
system.membus.snoop_filter.hitMultiSnoops            0                       # Number of snoops hitting in the snoop filter with multiple (>1) holders of the requested data. (Count)
system.workload.inst.arm                            0                       # number of arm instructions executed (Count)
system.workload.inst.quiesce                        0                       # number of quiesce instructions executed (Count)

---------- End Simulation Statistics   ----------
