---------- Begin Simulation Statistics ----------
simSeconds                                   0.027599                       # Number of seconds simulated (Second)
simTicks                                  27598696682                       # Number of ticks simulated (Tick)
finalTick                                1898043361063                       # Number of ticks from beginning of simulation (restored from checkpoints and never reset) (Tick)
simFreq                                  1000000000000                       # The number of ticks per simulated second ((Tick/Second))
hostSeconds                                      1.32                       # Real time elapsed on the host (Second)
hostTickRate                              20973980914                       # The number of ticks simulated per host second (ticks/s) ((Tick/Second))
hostMemory                                    8639744                       # Number of bytes of host memory used (Byte)
simInsts                                     58511251                       # Number of instructions simulated (Count)
simOps                                      106764746                       # Number of ops (including micro ops) simulated (Count)
hostInstRate                                 44271936                       # Simulator instruction rate (inst/s) ((Count/Second))
hostOpRate                                   80782079                       # Simulator op (including micro ops) rate (op/s) ((Count/Second))
system.clk_domain.clock                         13333                       # Clock period in ticks (Tick)
system.clk_domain.voltage_domain.voltage            1                       # Voltage in Volts (Volt)
system.cpu.numCycles                          2069954                       # Number of cpu cycles simulated (Cycle)
system.cpu.cpi                               2.186818                       # CPI: cycles per instruction (core level) ((Cycle/Count))
system.cpu.ipc                               0.457286                       # IPC: instructions per cycle (core level) ((Count/Cycle))
system.cpu.numWorkItemsStarted                      0                       # Number of work items this cpu started (Count)
system.cpu.numWorkItemsCompleted                    0                       # Number of work items this cpu completed (Count)
system.cpu.commitStats0.numInsts               946560                       # Number of instructions committed (thread level) (Count)
system.cpu.commitStats0.numOps                1669979                       # Number of ops (including micro ops) committed (thread level) (Count)
system.cpu.commitStats0.numInstsNotNOP              0                       # Number of instructions committed excluding NOPs or prefetches (Count)
system.cpu.commitStats0.numOpsNotNOP                0                       # Number of Ops (including micro ops) Simulated (Count)
system.cpu.commitStats0.cpi                  2.186818                       # CPI: cycles per instruction (thread level) ((Cycle/Count))
system.cpu.commitStats0.ipc                  0.457286                       # IPC: instructions per cycle (thread level) ((Count/Cycle))
system.cpu.commitStats0.numMemRefs                  0                       # Number of memory references committed (Count)
system.cpu.commitStats0.numFpInsts             339974                       # Number of float instructions (Count)
system.cpu.commitStats0.numIntInsts           1378511                       # Number of integer instructions (Count)
system.cpu.commitStats0.numLoadInsts           182024                       # Number of load instructions (Count)
system.cpu.commitStats0.numStoreInsts           80899                       # Number of store instructions (Count)
system.cpu.commitStats0.numVecInsts                 0                       # Number of vector instructions (Count)
system.cpu.commitStats0.committedInstType::No_OpClass         7145      0.43%      0.43% # Class of committed instruction. (Count)
system.cpu.commitStats0.committedInstType::IntAlu      1145908     68.62%     69.05% # Class of committed instruction. (Count)
system.cpu.commitStats0.committedInstType::IntMult          514      0.03%     69.08% # Class of committed instruction. (Count)
system.cpu.commitStats0.committedInstType::IntDiv          665      0.04%     69.12% # Class of committed instruction. (Count)
system.cpu.commitStats0.committedInstType::FloatAdd        55610      3.33%     72.45% # Class of committed instruction. (Count)
system.cpu.commitStats0.committedInstType::FloatCmp            0      0.00%     72.45% # Class of committed instruction. (Count)
system.cpu.commitStats0.committedInstType::FloatCvt            0      0.00%     72.45% # Class of committed instruction. (Count)
system.cpu.commitStats0.committedInstType::FloatMult            0      0.00%     72.45% # Class of committed instruction. (Count)
system.cpu.commitStats0.committedInstType::FloatMultAcc            0      0.00%     72.45% # Class of committed instruction. (Count)
system.cpu.commitStats0.committedInstType::FloatDiv            0      0.00%     72.45% # Class of committed instruction. (Count)
system.cpu.commitStats0.committedInstType::FloatMisc            0      0.00%     72.45% # Class of committed instruction. (Count)
system.cpu.commitStats0.committedInstType::FloatSqrt            0      0.00%     72.45% # Class of committed instruction. (Count)
system.cpu.commitStats0.committedInstType::SimdAdd            0      0.00%     72.45% # Class of committed instruction. (Count)
system.cpu.commitStats0.committedInstType::SimdAddAcc            0      0.00%     72.45% # Class of committed instruction. (Count)
system.cpu.commitStats0.committedInstType::SimdAlu          814      0.05%     72.50% # Class of committed instruction. (Count)
system.cpu.commitStats0.committedInstType::SimdCmp            0      0.00%     72.50% # Class of committed instruction. (Count)
system.cpu.commitStats0.committedInstType::SimdCvt           10      0.00%     72.50% # Class of committed instruction. (Count)
system.cpu.commitStats0.committedInstType::SimdMisc          471      0.03%     72.52% # Class of committed instruction. (Count)
system.cpu.commitStats0.committedInstType::SimdMult            0      0.00%     72.52% # Class of committed instruction. (Count)
system.cpu.commitStats0.committedInstType::SimdMultAcc            0      0.00%     72.52% # Class of committed instruction. (Count)
system.cpu.commitStats0.committedInstType::SimdMatMultAcc            0      0.00%     72.52% # Class of committed instruction. (Count)
system.cpu.commitStats0.committedInstType::SimdShift            0      0.00%     72.52% # Class of committed instruction. (Count)
system.cpu.commitStats0.committedInstType::SimdShiftAcc            0      0.00%     72.52% # Class of committed instruction. (Count)
system.cpu.commitStats0.committedInstType::SimdDiv            0      0.00%     72.52% # Class of committed instruction. (Count)
system.cpu.commitStats0.committedInstType::SimdSqrt            0      0.00%     72.52% # Class of committed instruction. (Count)
system.cpu.commitStats0.committedInstType::SimdFloatAdd        60428      3.62%     76.14% # Class of committed instruction. (Count)
system.cpu.commitStats0.committedInstType::SimdFloatAlu            0      0.00%     76.14% # Class of committed instruction. (Count)
system.cpu.commitStats0.committedInstType::SimdFloatCmp        24960      1.49%     77.64% # Class of committed instruction. (Count)
system.cpu.commitStats0.committedInstType::SimdFloatCvt        70359      4.21%     81.85% # Class of committed instruction. (Count)
system.cpu.commitStats0.committedInstType::SimdFloatDiv            0      0.00%     81.85% # Class of committed instruction. (Count)
system.cpu.commitStats0.committedInstType::SimdFloatMisc            0      0.00%     81.85% # Class of committed instruction. (Count)
system.cpu.commitStats0.committedInstType::SimdFloatMult        40124      2.40%     84.25% # Class of committed instruction. (Count)
system.cpu.commitStats0.committedInstType::SimdFloatMultAcc            0      0.00%     84.25% # Class of committed instruction. (Count)
system.cpu.commitStats0.committedInstType::SimdFloatMatMultAcc            0      0.00%     84.25% # Class of committed instruction. (Count)
system.cpu.commitStats0.committedInstType::SimdFloatSqrt           48      0.00%     84.26% # Class of committed instruction. (Count)
system.cpu.commitStats0.committedInstType::SimdReduceAdd            0      0.00%     84.26% # Class of committed instruction. (Count)
system.cpu.commitStats0.committedInstType::SimdReduceAlu            0      0.00%     84.26% # Class of committed instruction. (Count)
system.cpu.commitStats0.committedInstType::SimdReduceCmp            0      0.00%     84.26% # Class of committed instruction. (Count)
system.cpu.commitStats0.committedInstType::SimdFloatReduceAdd            0      0.00%     84.26% # Class of committed instruction. (Count)
system.cpu.commitStats0.committedInstType::SimdFloatReduceCmp            0      0.00%     84.26% # Class of committed instruction. (Count)
system.cpu.commitStats0.committedInstType::SimdAes            0      0.00%     84.26% # Class of committed instruction. (Count)
system.cpu.commitStats0.committedInstType::SimdAesMix            0      0.00%     84.26% # Class of committed instruction. (Count)
system.cpu.commitStats0.committedInstType::SimdSha1Hash            0      0.00%     84.26% # Class of committed instruction. (Count)
system.cpu.commitStats0.committedInstType::SimdSha1Hash2            0      0.00%     84.26% # Class of committed instruction. (Count)
system.cpu.commitStats0.committedInstType::SimdSha256Hash            0      0.00%     84.26% # Class of committed instruction. (Count)
system.cpu.commitStats0.committedInstType::SimdSha256Hash2            0      0.00%     84.26% # Class of committed instruction. (Count)
system.cpu.commitStats0.committedInstType::SimdShaSigma2            0      0.00%     84.26% # Class of committed instruction. (Count)
system.cpu.commitStats0.committedInstType::SimdShaSigma3            0      0.00%     84.26% # Class of committed instruction. (Count)
system.cpu.commitStats0.committedInstType::SimdPredAlu            0      0.00%     84.26% # Class of committed instruction. (Count)
system.cpu.commitStats0.committedInstType::Matrix            0      0.00%     84.26% # Class of committed instruction. (Count)
system.cpu.commitStats0.committedInstType::MatrixMov            0      0.00%     84.26% # Class of committed instruction. (Count)
system.cpu.commitStats0.committedInstType::MatrixOP            0      0.00%     84.26% # Class of committed instruction. (Count)
system.cpu.commitStats0.committedInstType::MemRead       126112      7.55%     91.81% # Class of committed instruction. (Count)
system.cpu.commitStats0.committedInstType::MemWrite        80315      4.81%     96.62% # Class of committed instruction. (Count)
system.cpu.commitStats0.committedInstType::FloatMemRead        55912      3.35%     99.97% # Class of committed instruction. (Count)
system.cpu.commitStats0.committedInstType::FloatMemWrite          584      0.03%    100.00% # Class of committed instruction. (Count)
system.cpu.commitStats0.committedInstType::IprAccess            0      0.00%    100.00% # Class of committed instruction. (Count)
system.cpu.commitStats0.committedInstType::InstPrefetch            0      0.00%    100.00% # Class of committed instruction. (Count)
system.cpu.commitStats0.committedInstType::SimdUnitStrideLoad            0      0.00%    100.00% # Class of committed instruction. (Count)
system.cpu.commitStats0.committedInstType::SimdUnitStrideStore            0      0.00%    100.00% # Class of committed instruction. (Count)
system.cpu.commitStats0.committedInstType::SimdUnitStrideMaskLoad            0      0.00%    100.00% # Class of committed instruction. (Count)
system.cpu.commitStats0.committedInstType::SimdUnitStrideMaskStore            0      0.00%    100.00% # Class of committed instruction. (Count)
system.cpu.commitStats0.committedInstType::SimdStridedLoad            0      0.00%    100.00% # Class of committed instruction. (Count)
system.cpu.commitStats0.committedInstType::SimdStridedStore            0      0.00%    100.00% # Class of committed instruction. (Count)
system.cpu.commitStats0.committedInstType::SimdIndexedLoad            0      0.00%    100.00% # Class of committed instruction. (Count)
system.cpu.commitStats0.committedInstType::SimdIndexedStore            0      0.00%    100.00% # Class of committed instruction. (Count)
system.cpu.commitStats0.committedInstType::SimdWholeRegisterLoad            0      0.00%    100.00% # Class of committed instruction. (Count)
system.cpu.commitStats0.committedInstType::SimdWholeRegisterStore            0      0.00%    100.00% # Class of committed instruction. (Count)
system.cpu.commitStats0.committedInstType::SimdUnitStrideFaultOnlyFirstLoad            0      0.00%    100.00% # Class of committed instruction. (Count)
system.cpu.commitStats0.committedInstType::SimdUnitStrideSegmentedLoad            0      0.00%    100.00% # Class of committed instruction. (Count)
system.cpu.commitStats0.committedInstType::SimdUnitStrideSegmentedStore            0      0.00%    100.00% # Class of committed instruction. (Count)
system.cpu.commitStats0.committedInstType::SimdExt            0      0.00%    100.00% # Class of committed instruction. (Count)
system.cpu.commitStats0.committedInstType::SimdFloatExt            0      0.00%    100.00% # Class of committed instruction. (Count)
system.cpu.commitStats0.committedInstType::SimdConfig            0      0.00%    100.00% # Class of committed instruction. (Count)
system.cpu.commitStats0.committedInstType::total      1669979                       # Class of committed instruction. (Count)
system.cpu.commitStats0.committedControl::IsControl       152259                       # Class of control type instructions committed (Count)
system.cpu.commitStats0.committedControl::IsDirectControl       145249                       # Class of control type instructions committed (Count)
system.cpu.commitStats0.committedControl::IsIndirectControl         7010                       # Class of control type instructions committed (Count)
system.cpu.commitStats0.committedControl::IsCondControl       137879                       # Class of control type instructions committed (Count)
system.cpu.commitStats0.committedControl::IsUncondControl        14380                       # Class of control type instructions committed (Count)
system.cpu.commitStats0.committedControl::IsCall         6810                       # Class of control type instructions committed (Count)
system.cpu.commitStats0.committedControl::IsReturn         6810                       # Class of control type instructions committed (Count)
system.cpu.exec_context.thread_0.numMatAluAccesses            0                       # Number of matrix alu accesses (Count)
system.cpu.exec_context.thread_0.numCallsReturns        13620                       # Number of times a function call or return occured (Count)
system.cpu.exec_context.thread_0.numMatInsts            0                       # Number of matrix instructions (Count)
system.cpu.exec_context.thread_0.numIdleCycles            0                       # Number of idle cycles (Cycle)
system.cpu.exec_context.thread_0.numBusyCycles      2069954                       # Number of busy cycles (Cycle)
system.cpu.exec_context.thread_0.notIdleFraction            1                       # Percentage of non-idle cycles (Ratio)
system.cpu.exec_context.thread_0.idleFraction            0                       # Percentage of idle cycles (Ratio)
system.cpu.executeStats0.numInsts                   0                       # Number of executed instructions (Count)
system.cpu.executeStats0.numNop                     0                       # Number of nop insts executed (Count)
system.cpu.executeStats0.numBranches                0                       # Number of branches executed (Count)
system.cpu.executeStats0.numLoadInsts               0                       # Number of load instructions executed (Count)
system.cpu.executeStats0.numStoreInsts         262923                       # Number of stores executed (Count)
system.cpu.executeStats0.instRate                   0                       # Inst execution rate ((Count/Cycle))
system.cpu.executeStats0.numFpAluAccesses       339974                       # Number of float alu accesses (Count)
system.cpu.executeStats0.numFpRegReads         581707                       # Number of times the floating registers were read (Count)
system.cpu.executeStats0.numFpRegWrites        269148                       # Number of times the floating registers were written (Count)
system.cpu.executeStats0.numIntAluAccesses      1378511                       # Number of integer alu accesses (Count)
system.cpu.executeStats0.numIntRegReads       1812921                       # Number of times the integer registers were read (Count)
system.cpu.executeStats0.numIntRegWrites       984745                       # Number of times the integer registers were written (Count)
system.cpu.executeStats0.numMemRefs            262923                       # Number of memory refs (Count)
system.cpu.executeStats0.numMiscRegReads       562766                       # Number of times the Misc registers were read (Count)
system.cpu.executeStats0.numVecAluAccesses            0                       # Number of vector alu accesses (Count)
system.cpu.executeStats0.numDiscardedOps            0                       # Number of ops (including micro ops) which were discarded before commit (Count)
system.cpu.fetchStats0.numInsts                946560                       # Number of instructions fetched (thread level) (Count)
system.cpu.fetchStats0.numOps                 1669979                       # Number of ops (including micro ops) fetched (thread level) (Count)
system.cpu.fetchStats0.fetchRate             0.457286                       # Number of inst fetches per cycle ((Count/Cycle))
system.cpu.fetchStats0.numBranches             152259                       # Number of branches fetched (Count)
system.cpu.fetchStats0.branchRate            0.073557                       # Number of branch fetches per cycle (Ratio)
system.cpu.fetchStats0.numFetchSuspends             0                       # Number of times Execute suspended instruction fetching (Count)
system.cpu.interrupts.clk_domain.clock         213328                       # Clock period in ticks (Tick)
system.cpu.l1d.demandHits::cpu.data            252897                       # number of demand (read+write) hits (Count)
system.cpu.l1d.demandHits::total               252897                       # number of demand (read+write) hits (Count)
system.cpu.l1d.overallHits::cpu.data           252897                       # number of overall hits (Count)
system.cpu.l1d.overallHits::total              252897                       # number of overall hits (Count)
system.cpu.l1d.demandMisses::cpu.data            9186                       # number of demand (read+write) misses (Count)
system.cpu.l1d.demandMisses::total               9186                       # number of demand (read+write) misses (Count)
system.cpu.l1d.overallMisses::cpu.data           9186                       # number of overall misses (Count)
system.cpu.l1d.overallMisses::total              9186                       # number of overall misses (Count)
system.cpu.l1d.demandMissLatency::cpu.data   1795128454                       # number of demand (read+write) miss ticks (Tick)
system.cpu.l1d.demandMissLatency::total    1795128454                       # number of demand (read+write) miss ticks (Tick)
system.cpu.l1d.overallMissLatency::cpu.data   1795128454                       # number of overall miss ticks (Tick)
system.cpu.l1d.overallMissLatency::total   1795128454                       # number of overall miss ticks (Tick)
system.cpu.l1d.demandAccesses::cpu.data        262083                       # number of demand (read+write) accesses (Count)
system.cpu.l1d.demandAccesses::total           262083                       # number of demand (read+write) accesses (Count)
system.cpu.l1d.overallAccesses::cpu.data       262083                       # number of overall (read+write) accesses (Count)
system.cpu.l1d.overallAccesses::total          262083                       # number of overall (read+write) accesses (Count)
system.cpu.l1d.demandMissRate::cpu.data      0.035050                       # miss rate for demand accesses (Ratio)
system.cpu.l1d.demandMissRate::total         0.035050                       # miss rate for demand accesses (Ratio)
system.cpu.l1d.overallMissRate::cpu.data     0.035050                       # miss rate for overall accesses (Ratio)
system.cpu.l1d.overallMissRate::total        0.035050                       # miss rate for overall accesses (Ratio)
system.cpu.l1d.demandAvgMissLatency::cpu.data 195420.036360                       # average overall miss latency in ticks ((Tick/Count))
system.cpu.l1d.demandAvgMissLatency::total 195420.036360                       # average overall miss latency in ticks ((Tick/Count))
system.cpu.l1d.overallAvgMissLatency::cpu.data 195420.036360                       # average overall miss latency ((Tick/Count))
system.cpu.l1d.overallAvgMissLatency::total 195420.036360                       # average overall miss latency ((Tick/Count))
system.cpu.l1d.blockedCycles::no_mshrs              0                       # number of cycles access was blocked (Cycle)
system.cpu.l1d.blockedCycles::no_targets            0                       # number of cycles access was blocked (Cycle)
system.cpu.l1d.blockedCauses::no_mshrs              0                       # number of times access was blocked (Count)
system.cpu.l1d.blockedCauses::no_targets            0                       # number of times access was blocked (Count)
system.cpu.l1d.avgBlocked::no_mshrs               nan                       # average number of cycles each access was blocked ((Cycle/Count))
system.cpu.l1d.avgBlocked::no_targets             nan                       # average number of cycles each access was blocked ((Cycle/Count))
system.cpu.l1d.writebacks::writebacks            4666                       # number of writebacks (Count)
system.cpu.l1d.writebacks::total                 4666                       # number of writebacks (Count)
system.cpu.l1d.demandMshrHits::cpu.data           645                       # number of demand (read+write) MSHR hits (Count)
system.cpu.l1d.demandMshrHits::total              645                       # number of demand (read+write) MSHR hits (Count)
system.cpu.l1d.overallMshrHits::cpu.data          645                       # number of overall MSHR hits (Count)
system.cpu.l1d.overallMshrHits::total             645                       # number of overall MSHR hits (Count)
system.cpu.l1d.demandMshrMisses::cpu.data         8541                       # number of demand (read+write) MSHR misses (Count)
system.cpu.l1d.demandMshrMisses::total           8541                       # number of demand (read+write) MSHR misses (Count)
system.cpu.l1d.overallMshrMisses::cpu.data         8541                       # number of overall MSHR misses (Count)
system.cpu.l1d.overallMshrMisses::cpu.l1d.prefetcher        15425                       # number of overall MSHR misses (Count)
system.cpu.l1d.overallMshrMisses::total         23966                       # number of overall MSHR misses (Count)
system.cpu.l1d.demandMshrMissLatency::cpu.data   1620346157                       # number of demand (read+write) MSHR miss ticks (Tick)
system.cpu.l1d.demandMshrMissLatency::total   1620346157                       # number of demand (read+write) MSHR miss ticks (Tick)
system.cpu.l1d.overallMshrMissLatency::cpu.data   1620346157                       # number of overall MSHR miss ticks (Tick)
system.cpu.l1d.overallMshrMissLatency::cpu.l1d.prefetcher   3247365072                       # number of overall MSHR miss ticks (Tick)
system.cpu.l1d.overallMshrMissLatency::total   4867711229                       # number of overall MSHR miss ticks (Tick)
system.cpu.l1d.demandMshrMissRate::cpu.data     0.032589                       # mshr miss ratio for demand accesses (Ratio)
system.cpu.l1d.demandMshrMissRate::total     0.032589                       # mshr miss ratio for demand accesses (Ratio)
system.cpu.l1d.overallMshrMissRate::cpu.data     0.032589                       # mshr miss ratio for overall accesses (Ratio)
system.cpu.l1d.overallMshrMissRate::cpu.l1d.prefetcher          inf                       # mshr miss ratio for overall accesses (Ratio)
system.cpu.l1d.overallMshrMissRate::total     0.091444                       # mshr miss ratio for overall accesses (Ratio)
system.cpu.l1d.demandAvgMshrMissLatency::cpu.data 189713.869219                       # average overall mshr miss latency ((Tick/Count))
system.cpu.l1d.demandAvgMshrMissLatency::total 189713.869219                       # average overall mshr miss latency ((Tick/Count))
system.cpu.l1d.overallAvgMshrMissLatency::cpu.data 189713.869219                       # average overall mshr miss latency ((Tick/Count))
system.cpu.l1d.overallAvgMshrMissLatency::cpu.l1d.prefetcher 210526.098671                       # average overall mshr miss latency ((Tick/Count))
system.cpu.l1d.overallAvgMshrMissLatency::total 203109.039014                       # average overall mshr miss latency ((Tick/Count))
system.cpu.l1d.replacements                     23966                       # number of replacements (Count)
system.cpu.l1d.HardPFReq.mshrMisses::cpu.l1d.prefetcher        15425                       # number of HardPFReq MSHR misses (Count)
system.cpu.l1d.HardPFReq.mshrMisses::total        15425                       # number of HardPFReq MSHR misses (Count)
system.cpu.l1d.HardPFReq.mshrMissLatency::cpu.l1d.prefetcher   3247365072                       # number of HardPFReq MSHR miss ticks (Tick)
system.cpu.l1d.HardPFReq.mshrMissLatency::total   3247365072                       # number of HardPFReq MSHR miss ticks (Tick)
system.cpu.l1d.HardPFReq.mshrMissRate::cpu.l1d.prefetcher          inf                       # mshr miss rate for HardPFReq accesses (Ratio)
system.cpu.l1d.HardPFReq.mshrMissRate::total          inf                       # mshr miss rate for HardPFReq accesses (Ratio)
system.cpu.l1d.HardPFReq.avgMshrMissLatency::cpu.l1d.prefetcher 210526.098671                       # average HardPFReq mshr miss latency ((Tick/Count))
system.cpu.l1d.HardPFReq.avgMshrMissLatency::total 210526.098671                       # average HardPFReq mshr miss latency ((Tick/Count))
system.cpu.l1d.LockedRMWReadReq.hits::cpu.data          422                       # number of LockedRMWReadReq hits (Count)
system.cpu.l1d.LockedRMWReadReq.hits::total          422                       # number of LockedRMWReadReq hits (Count)
system.cpu.l1d.LockedRMWReadReq.accesses::cpu.data          422                       # number of LockedRMWReadReq accesses(hits+misses) (Count)
system.cpu.l1d.LockedRMWReadReq.accesses::total          422                       # number of LockedRMWReadReq accesses(hits+misses) (Count)
system.cpu.l1d.LockedRMWReadReq.mshrMissLatency::cpu.data      5626526                       # number of LockedRMWReadReq MSHR miss ticks (Tick)
system.cpu.l1d.LockedRMWReadReq.mshrMissLatency::total      5626526                       # number of LockedRMWReadReq MSHR miss ticks (Tick)
system.cpu.l1d.LockedRMWReadReq.avgMshrMissLatency::cpu.data          inf                       # average LockedRMWReadReq mshr miss latency ((Tick/Count))
system.cpu.l1d.LockedRMWReadReq.avgMshrMissLatency::total          inf                       # average LockedRMWReadReq mshr miss latency ((Tick/Count))
system.cpu.l1d.LockedRMWWriteReq.hits::cpu.data          422                       # number of LockedRMWWriteReq hits (Count)
system.cpu.l1d.LockedRMWWriteReq.hits::total          422                       # number of LockedRMWWriteReq hits (Count)
system.cpu.l1d.LockedRMWWriteReq.accesses::cpu.data          422                       # number of LockedRMWWriteReq accesses(hits+misses) (Count)
system.cpu.l1d.LockedRMWWriteReq.accesses::total          422                       # number of LockedRMWWriteReq accesses(hits+misses) (Count)
system.cpu.l1d.ReadReq.hits::cpu.data          174982                       # number of ReadReq hits (Count)
system.cpu.l1d.ReadReq.hits::total             174982                       # number of ReadReq hits (Count)
system.cpu.l1d.ReadReq.misses::cpu.data          6623                       # number of ReadReq misses (Count)
system.cpu.l1d.ReadReq.misses::total             6623                       # number of ReadReq misses (Count)
system.cpu.l1d.ReadReq.missLatency::cpu.data   1306194011                       # number of ReadReq miss ticks (Tick)
system.cpu.l1d.ReadReq.missLatency::total   1306194011                       # number of ReadReq miss ticks (Tick)
system.cpu.l1d.ReadReq.accesses::cpu.data       181605                       # number of ReadReq accesses(hits+misses) (Count)
system.cpu.l1d.ReadReq.accesses::total         181605                       # number of ReadReq accesses(hits+misses) (Count)
system.cpu.l1d.ReadReq.missRate::cpu.data     0.036469                       # miss rate for ReadReq accesses (Ratio)
system.cpu.l1d.ReadReq.missRate::total       0.036469                       # miss rate for ReadReq accesses (Ratio)
system.cpu.l1d.ReadReq.avgMissLatency::cpu.data 197220.898535                       # average ReadReq miss latency ((Tick/Count))
system.cpu.l1d.ReadReq.avgMissLatency::total 197220.898535                       # average ReadReq miss latency ((Tick/Count))
system.cpu.l1d.ReadReq.mshrHits::cpu.data          638                       # number of ReadReq MSHR hits (Count)
system.cpu.l1d.ReadReq.mshrHits::total            638                       # number of ReadReq MSHR hits (Count)
system.cpu.l1d.ReadReq.mshrMisses::cpu.data         5985                       # number of ReadReq MSHR misses (Count)
system.cpu.l1d.ReadReq.mshrMisses::total         5985                       # number of ReadReq MSHR misses (Count)
system.cpu.l1d.ReadReq.mshrMissLatency::cpu.data   1166184178                       # number of ReadReq MSHR miss ticks (Tick)
system.cpu.l1d.ReadReq.mshrMissLatency::total   1166184178                       # number of ReadReq MSHR miss ticks (Tick)
system.cpu.l1d.ReadReq.mshrMissRate::cpu.data     0.032956                       # mshr miss rate for ReadReq accesses (Ratio)
system.cpu.l1d.ReadReq.mshrMissRate::total     0.032956                       # mshr miss rate for ReadReq accesses (Ratio)
system.cpu.l1d.ReadReq.avgMshrMissLatency::cpu.data 194851.157561                       # average ReadReq mshr miss latency ((Tick/Count))
system.cpu.l1d.ReadReq.avgMshrMissLatency::total 194851.157561                       # average ReadReq mshr miss latency ((Tick/Count))
system.cpu.l1d.WriteReq.hits::cpu.data          77915                       # number of WriteReq hits (Count)
system.cpu.l1d.WriteReq.hits::total             77915                       # number of WriteReq hits (Count)
system.cpu.l1d.WriteReq.misses::cpu.data         2563                       # number of WriteReq misses (Count)
system.cpu.l1d.WriteReq.misses::total            2563                       # number of WriteReq misses (Count)
system.cpu.l1d.WriteReq.missLatency::cpu.data    488934443                       # number of WriteReq miss ticks (Tick)
system.cpu.l1d.WriteReq.missLatency::total    488934443                       # number of WriteReq miss ticks (Tick)
system.cpu.l1d.WriteReq.accesses::cpu.data        80478                       # number of WriteReq accesses(hits+misses) (Count)
system.cpu.l1d.WriteReq.accesses::total         80478                       # number of WriteReq accesses(hits+misses) (Count)
system.cpu.l1d.WriteReq.missRate::cpu.data     0.031847                       # miss rate for WriteReq accesses (Ratio)
system.cpu.l1d.WriteReq.missRate::total      0.031847                       # miss rate for WriteReq accesses (Ratio)
system.cpu.l1d.WriteReq.avgMissLatency::cpu.data 190766.462349                       # average WriteReq miss latency ((Tick/Count))
system.cpu.l1d.WriteReq.avgMissLatency::total 190766.462349                       # average WriteReq miss latency ((Tick/Count))
system.cpu.l1d.WriteReq.mshrHits::cpu.data            7                       # number of WriteReq MSHR hits (Count)
system.cpu.l1d.WriteReq.mshrHits::total             7                       # number of WriteReq MSHR hits (Count)
system.cpu.l1d.WriteReq.mshrMisses::cpu.data         2556                       # number of WriteReq MSHR misses (Count)
system.cpu.l1d.WriteReq.mshrMisses::total         2556                       # number of WriteReq MSHR misses (Count)
system.cpu.l1d.WriteReq.mshrMissLatency::cpu.data    454161979                       # number of WriteReq MSHR miss ticks (Tick)
system.cpu.l1d.WriteReq.mshrMissLatency::total    454161979                       # number of WriteReq MSHR miss ticks (Tick)
system.cpu.l1d.WriteReq.mshrMissRate::cpu.data     0.031760                       # mshr miss rate for WriteReq accesses (Ratio)
system.cpu.l1d.WriteReq.mshrMissRate::total     0.031760                       # mshr miss rate for WriteReq accesses (Ratio)
system.cpu.l1d.WriteReq.avgMshrMissLatency::cpu.data 177684.655321                       # average WriteReq mshr miss latency ((Tick/Count))
system.cpu.l1d.WriteReq.avgMshrMissLatency::total 177684.655321                       # average WriteReq mshr miss latency ((Tick/Count))
system.cpu.l1d.power_state.pwrStateResidencyTicks::UNDEFINED  27598696682                       # Cumulative time (in ticks) in various power states (Tick)
system.cpu.l1d.prefetcher.demandMshrMisses         8541                       # demands not covered by prefetchs (Count)
system.cpu.l1d.prefetcher.pfIssued              17264                       # number of hwpf issued (Count)
system.cpu.l1d.prefetcher.pfUnused               6540                       # number of HardPF blocks evicted w/o reference (Count)
system.cpu.l1d.prefetcher.pfUseful               8243                       # number of useful prefetch (Count)
system.cpu.l1d.prefetcher.pfUsefulButMiss            0                       # number of hit on prefetch but cache block is not in an usable state (Count)
system.cpu.l1d.prefetcher.accuracy           0.477468                       # accuracy of the prefetcher (Count)
system.cpu.l1d.prefetcher.coverage           0.491122                       # coverage brought by this prefetcher (Count)
system.cpu.l1d.prefetcher.pfHitInCache           1836                       # number of prefetches hitting in cache (Count)
system.cpu.l1d.prefetcher.pfHitInMSHR               0                       # number of prefetches hitting in a MSHR (Count)
system.cpu.l1d.prefetcher.pfHitInWB                 3                       # number of prefetches hit in the Write Buffer (Count)
system.cpu.l1d.prefetcher.pfLate                 1839                       # number of late prefetches (hitting in cache, MSHR or WB) (Count)
system.cpu.l1d.prefetcher.pfIdentified          17265                       # number of prefetch candidates identified (Count)
system.cpu.l1d.prefetcher.pfBufferHit               0                       # number of redundant prefetches already in prefetch queue (Count)
system.cpu.l1d.prefetcher.pfInCache                 0                       # number of redundant prefetches already in cache/mshr dropped (Count)
system.cpu.l1d.prefetcher.pfRemovedDemand            1                       # number of prefetches dropped due to a demand for the same address (Count)
system.cpu.l1d.prefetcher.pfRemovedFull             0                       # number of prefetches dropped due to prefetch queue size (Count)
system.cpu.l1d.prefetcher.pfSpanPage              164                       # number of prefetches that crossed the page (Count)
system.cpu.l1d.prefetcher.pfUsefulSpanPage          103                       # number of prefetches that is useful and crossed the page (Count)
system.cpu.l1d.prefetcher.power_state.pwrStateResidencyTicks::UNDEFINED  27598696682                       # Cumulative time (in ticks) in various power states (Tick)
system.cpu.l1d.tags.tagsInUse                      64                       # Average ticks per tags in use ((Tick/Count))
system.cpu.l1d.tags.totalRefs                  276686                       # Total number of references to valid blocks. (Count)
system.cpu.l1d.tags.sampledRefs                 23966                       # Sample count of references to valid blocks. (Count)
system.cpu.l1d.tags.avgRefs                 11.544939                       # Average number of references to valid blocks. ((Count/Count))
system.cpu.l1d.tags.warmupTick                      0                       # The tick when the warmup percentage was hit. (Tick)
system.cpu.l1d.tags.occupancies::cpu.data    21.507129                       # Average occupied blocks per tick, per requestor ((Count/Tick))
system.cpu.l1d.tags.occupancies::cpu.l1d.prefetcher    42.492871                       # Average occupied blocks per tick, per requestor ((Count/Tick))
system.cpu.l1d.tags.avgOccs::cpu.data        0.336049                       # Average percentage of cache occupancy ((Ratio/Tick))
system.cpu.l1d.tags.avgOccs::cpu.l1d.prefetcher     0.663951                       # Average percentage of cache occupancy ((Ratio/Tick))
system.cpu.l1d.tags.avgOccs::total                  1                       # Average percentage of cache occupancy ((Ratio/Tick))
system.cpu.l1d.tags.occupanciesTaskId::1022           29                       # Occupied blocks per task id (Count)
system.cpu.l1d.tags.occupanciesTaskId::1024           35                       # Occupied blocks per task id (Count)
system.cpu.l1d.tags.ageTaskId_1022::0               3                       # Occupied blocks per task id, per block age (Count)
system.cpu.l1d.tags.ageTaskId_1022::1              16                       # Occupied blocks per task id, per block age (Count)
system.cpu.l1d.tags.ageTaskId_1022::2               9                       # Occupied blocks per task id, per block age (Count)
system.cpu.l1d.tags.ageTaskId_1022::3               1                       # Occupied blocks per task id, per block age (Count)
system.cpu.l1d.tags.ageTaskId_1024::0               1                       # Occupied blocks per task id, per block age (Count)
system.cpu.l1d.tags.ageTaskId_1024::1              19                       # Occupied blocks per task id, per block age (Count)
system.cpu.l1d.tags.ageTaskId_1024::2              11                       # Occupied blocks per task id, per block age (Count)
system.cpu.l1d.tags.ageTaskId_1024::3               4                       # Occupied blocks per task id, per block age (Count)
system.cpu.l1d.tags.ratioOccsTaskId::1022     0.453125                       # Ratio of occupied blocks and all blocks, per task id (Ratio)
system.cpu.l1d.tags.ratioOccsTaskId::1024     0.546875                       # Ratio of occupied blocks and all blocks, per task id (Ratio)
system.cpu.l1d.tags.tagAccesses                549820                       # Number of tag accesses (Count)
system.cpu.l1d.tags.dataAccesses               549820                       # Number of data accesses (Count)
system.cpu.l1d.tags.power_state.pwrStateResidencyTicks::UNDEFINED  27598696682                       # Cumulative time (in ticks) in various power states (Tick)
system.cpu.l1i.demandHits::cpu.inst           1225240                       # number of demand (read+write) hits (Count)
system.cpu.l1i.demandHits::total              1225240                       # number of demand (read+write) hits (Count)
system.cpu.l1i.overallHits::cpu.inst          1225240                       # number of overall hits (Count)
system.cpu.l1i.overallHits::total             1225240                       # number of overall hits (Count)
system.cpu.l1i.demandMisses::cpu.inst           23494                       # number of demand (read+write) misses (Count)
system.cpu.l1i.demandMisses::total              23494                       # number of demand (read+write) misses (Count)
system.cpu.l1i.overallMisses::cpu.inst          23494                       # number of overall misses (Count)
system.cpu.l1i.overallMisses::total             23494                       # number of overall misses (Count)
system.cpu.l1i.demandMissLatency::cpu.inst   4908583949                       # number of demand (read+write) miss ticks (Tick)
system.cpu.l1i.demandMissLatency::total    4908583949                       # number of demand (read+write) miss ticks (Tick)
system.cpu.l1i.overallMissLatency::cpu.inst   4908583949                       # number of overall miss ticks (Tick)
system.cpu.l1i.overallMissLatency::total   4908583949                       # number of overall miss ticks (Tick)
system.cpu.l1i.demandAccesses::cpu.inst       1248734                       # number of demand (read+write) accesses (Count)
system.cpu.l1i.demandAccesses::total          1248734                       # number of demand (read+write) accesses (Count)
system.cpu.l1i.overallAccesses::cpu.inst      1248734                       # number of overall (read+write) accesses (Count)
system.cpu.l1i.overallAccesses::total         1248734                       # number of overall (read+write) accesses (Count)
system.cpu.l1i.demandMissRate::cpu.inst      0.018814                       # miss rate for demand accesses (Ratio)
system.cpu.l1i.demandMissRate::total         0.018814                       # miss rate for demand accesses (Ratio)
system.cpu.l1i.overallMissRate::cpu.inst     0.018814                       # miss rate for overall accesses (Ratio)
system.cpu.l1i.overallMissRate::total        0.018814                       # miss rate for overall accesses (Ratio)
system.cpu.l1i.demandAvgMissLatency::cpu.inst 208929.256363                       # average overall miss latency in ticks ((Tick/Count))
system.cpu.l1i.demandAvgMissLatency::total 208929.256363                       # average overall miss latency in ticks ((Tick/Count))
system.cpu.l1i.overallAvgMissLatency::cpu.inst 208929.256363                       # average overall miss latency ((Tick/Count))
system.cpu.l1i.overallAvgMissLatency::total 208929.256363                       # average overall miss latency ((Tick/Count))
system.cpu.l1i.blockedCycles::no_mshrs              0                       # number of cycles access was blocked (Cycle)
system.cpu.l1i.blockedCycles::no_targets            0                       # number of cycles access was blocked (Cycle)
system.cpu.l1i.blockedCauses::no_mshrs              0                       # number of times access was blocked (Count)
system.cpu.l1i.blockedCauses::no_targets            0                       # number of times access was blocked (Count)
system.cpu.l1i.avgBlocked::no_mshrs               nan                       # average number of cycles each access was blocked ((Cycle/Count))
system.cpu.l1i.avgBlocked::no_targets             nan                       # average number of cycles each access was blocked ((Cycle/Count))
system.cpu.l1i.demandMshrHits::cpu.inst           734                       # number of demand (read+write) MSHR hits (Count)
system.cpu.l1i.demandMshrHits::total              734                       # number of demand (read+write) MSHR hits (Count)
system.cpu.l1i.overallMshrHits::cpu.inst          734                       # number of overall MSHR hits (Count)
system.cpu.l1i.overallMshrHits::total             734                       # number of overall MSHR hits (Count)
system.cpu.l1i.demandMshrMisses::cpu.inst        22760                       # number of demand (read+write) MSHR misses (Count)
system.cpu.l1i.demandMshrMisses::total          22760                       # number of demand (read+write) MSHR misses (Count)
system.cpu.l1i.overallMshrMisses::cpu.inst        22760                       # number of overall MSHR misses (Count)
system.cpu.l1i.overallMshrMisses::cpu.l1i.prefetcher        49195                       # number of overall MSHR misses (Count)
system.cpu.l1i.overallMshrMisses::total         71955                       # number of overall MSHR misses (Count)
system.cpu.l1i.demandMshrMissLatency::cpu.inst   4536753245                       # number of demand (read+write) MSHR miss ticks (Tick)
system.cpu.l1i.demandMshrMissLatency::total   4536753245                       # number of demand (read+write) MSHR miss ticks (Tick)
system.cpu.l1i.overallMshrMissLatency::cpu.inst   4536753245                       # number of overall MSHR miss ticks (Tick)
system.cpu.l1i.overallMshrMissLatency::cpu.l1i.prefetcher  10489408670                       # number of overall MSHR miss ticks (Tick)
system.cpu.l1i.overallMshrMissLatency::total  15026161915                       # number of overall MSHR miss ticks (Tick)
system.cpu.l1i.demandMshrMissRate::cpu.inst     0.018226                       # mshr miss ratio for demand accesses (Ratio)
system.cpu.l1i.demandMshrMissRate::total     0.018226                       # mshr miss ratio for demand accesses (Ratio)
system.cpu.l1i.overallMshrMissRate::cpu.inst     0.018226                       # mshr miss ratio for overall accesses (Ratio)
system.cpu.l1i.overallMshrMissRate::cpu.l1i.prefetcher          inf                       # mshr miss ratio for overall accesses (Ratio)
system.cpu.l1i.overallMshrMissRate::total     0.057622                       # mshr miss ratio for overall accesses (Ratio)
system.cpu.l1i.demandAvgMshrMissLatency::cpu.inst 199330.107425                       # average overall mshr miss latency ((Tick/Count))
system.cpu.l1i.demandAvgMshrMissLatency::total 199330.107425                       # average overall mshr miss latency ((Tick/Count))
system.cpu.l1i.overallAvgMshrMissLatency::cpu.inst 199330.107425                       # average overall mshr miss latency ((Tick/Count))
system.cpu.l1i.overallAvgMshrMissLatency::cpu.l1i.prefetcher 213221.032015                       # average overall mshr miss latency ((Tick/Count))
system.cpu.l1i.overallAvgMshrMissLatency::total 208827.210270                       # average overall mshr miss latency ((Tick/Count))
system.cpu.l1i.replacements                     71955                       # number of replacements (Count)
system.cpu.l1i.HardPFReq.mshrMisses::cpu.l1i.prefetcher        49195                       # number of HardPFReq MSHR misses (Count)
system.cpu.l1i.HardPFReq.mshrMisses::total        49195                       # number of HardPFReq MSHR misses (Count)
system.cpu.l1i.HardPFReq.mshrMissLatency::cpu.l1i.prefetcher  10489408670                       # number of HardPFReq MSHR miss ticks (Tick)
system.cpu.l1i.HardPFReq.mshrMissLatency::total  10489408670                       # number of HardPFReq MSHR miss ticks (Tick)
system.cpu.l1i.HardPFReq.mshrMissRate::cpu.l1i.prefetcher          inf                       # mshr miss rate for HardPFReq accesses (Ratio)
system.cpu.l1i.HardPFReq.mshrMissRate::total          inf                       # mshr miss rate for HardPFReq accesses (Ratio)
system.cpu.l1i.HardPFReq.avgMshrMissLatency::cpu.l1i.prefetcher 213221.032015                       # average HardPFReq mshr miss latency ((Tick/Count))
system.cpu.l1i.HardPFReq.avgMshrMissLatency::total 213221.032015                       # average HardPFReq mshr miss latency ((Tick/Count))
system.cpu.l1i.ReadReq.hits::cpu.inst         1225240                       # number of ReadReq hits (Count)
system.cpu.l1i.ReadReq.hits::total            1225240                       # number of ReadReq hits (Count)
system.cpu.l1i.ReadReq.misses::cpu.inst         23494                       # number of ReadReq misses (Count)
system.cpu.l1i.ReadReq.misses::total            23494                       # number of ReadReq misses (Count)
system.cpu.l1i.ReadReq.missLatency::cpu.inst   4908583949                       # number of ReadReq miss ticks (Tick)
system.cpu.l1i.ReadReq.missLatency::total   4908583949                       # number of ReadReq miss ticks (Tick)
system.cpu.l1i.ReadReq.accesses::cpu.inst      1248734                       # number of ReadReq accesses(hits+misses) (Count)
system.cpu.l1i.ReadReq.accesses::total        1248734                       # number of ReadReq accesses(hits+misses) (Count)
system.cpu.l1i.ReadReq.missRate::cpu.inst     0.018814                       # miss rate for ReadReq accesses (Ratio)
system.cpu.l1i.ReadReq.missRate::total       0.018814                       # miss rate for ReadReq accesses (Ratio)
system.cpu.l1i.ReadReq.avgMissLatency::cpu.inst 208929.256363                       # average ReadReq miss latency ((Tick/Count))
system.cpu.l1i.ReadReq.avgMissLatency::total 208929.256363                       # average ReadReq miss latency ((Tick/Count))
system.cpu.l1i.ReadReq.mshrHits::cpu.inst          734                       # number of ReadReq MSHR hits (Count)
system.cpu.l1i.ReadReq.mshrHits::total            734                       # number of ReadReq MSHR hits (Count)
system.cpu.l1i.ReadReq.mshrMisses::cpu.inst        22760                       # number of ReadReq MSHR misses (Count)
system.cpu.l1i.ReadReq.mshrMisses::total        22760                       # number of ReadReq MSHR misses (Count)
system.cpu.l1i.ReadReq.mshrMissLatency::cpu.inst   4536753245                       # number of ReadReq MSHR miss ticks (Tick)
system.cpu.l1i.ReadReq.mshrMissLatency::total   4536753245                       # number of ReadReq MSHR miss ticks (Tick)
system.cpu.l1i.ReadReq.mshrMissRate::cpu.inst     0.018226                       # mshr miss rate for ReadReq accesses (Ratio)
system.cpu.l1i.ReadReq.mshrMissRate::total     0.018226                       # mshr miss rate for ReadReq accesses (Ratio)
system.cpu.l1i.ReadReq.avgMshrMissLatency::cpu.inst 199330.107425                       # average ReadReq mshr miss latency ((Tick/Count))
system.cpu.l1i.ReadReq.avgMshrMissLatency::total 199330.107425                       # average ReadReq mshr miss latency ((Tick/Count))
system.cpu.l1i.power_state.pwrStateResidencyTicks::UNDEFINED  27598696682                       # Cumulative time (in ticks) in various power states (Tick)
system.cpu.l1i.prefetcher.demandMshrMisses        22760                       # demands not covered by prefetchs (Count)
system.cpu.l1i.prefetcher.pfIssued              49589                       # number of hwpf issued (Count)
system.cpu.l1i.prefetcher.pfUnused              22364                       # number of HardPF blocks evicted w/o reference (Count)
system.cpu.l1i.prefetcher.pfUseful              26097                       # number of useful prefetch (Count)
system.cpu.l1i.prefetcher.pfUsefulButMiss            0                       # number of hit on prefetch but cache block is not in an usable state (Count)
system.cpu.l1i.prefetcher.accuracy           0.526266                       # accuracy of the prefetcher (Count)
system.cpu.l1i.prefetcher.coverage           0.534151                       # coverage brought by this prefetcher (Count)
system.cpu.l1i.prefetcher.pfHitInCache            385                       # number of prefetches hitting in cache (Count)
system.cpu.l1i.prefetcher.pfHitInMSHR               0                       # number of prefetches hitting in a MSHR (Count)
system.cpu.l1i.prefetcher.pfHitInWB                 9                       # number of prefetches hit in the Write Buffer (Count)
system.cpu.l1i.prefetcher.pfLate                  394                       # number of late prefetches (hitting in cache, MSHR or WB) (Count)
system.cpu.l1i.prefetcher.pfIdentified          49589                       # number of prefetch candidates identified (Count)
system.cpu.l1i.prefetcher.pfBufferHit               0                       # number of redundant prefetches already in prefetch queue (Count)
system.cpu.l1i.prefetcher.pfInCache                 0                       # number of redundant prefetches already in cache/mshr dropped (Count)
system.cpu.l1i.prefetcher.pfRemovedDemand            0                       # number of prefetches dropped due to a demand for the same address (Count)
system.cpu.l1i.prefetcher.pfRemovedFull             0                       # number of prefetches dropped due to prefetch queue size (Count)
system.cpu.l1i.prefetcher.pfSpanPage                2                       # number of prefetches that crossed the page (Count)
system.cpu.l1i.prefetcher.pfUsefulSpanPage            2                       # number of prefetches that is useful and crossed the page (Count)
system.cpu.l1i.prefetcher.power_state.pwrStateResidencyTicks::UNDEFINED  27598696682                       # Cumulative time (in ticks) in various power states (Tick)
system.cpu.l1i.tags.tagsInUse                       2                       # Average ticks per tags in use ((Tick/Count))
system.cpu.l1i.tags.totalRefs                 1297195                       # Total number of references to valid blocks. (Count)
system.cpu.l1i.tags.sampledRefs                 71955                       # Sample count of references to valid blocks. (Count)
system.cpu.l1i.tags.avgRefs                 18.027865                       # Average number of references to valid blocks. ((Count/Count))
system.cpu.l1i.tags.warmupTick                      0                       # The tick when the warmup percentage was hit. (Tick)
system.cpu.l1i.tags.occupancies::cpu.inst     0.628938                       # Average occupied blocks per tick, per requestor ((Count/Tick))
system.cpu.l1i.tags.occupancies::cpu.l1i.prefetcher     1.371062                       # Average occupied blocks per tick, per requestor ((Count/Tick))
system.cpu.l1i.tags.avgOccs::cpu.inst        0.314469                       # Average percentage of cache occupancy ((Ratio/Tick))
system.cpu.l1i.tags.avgOccs::cpu.l1i.prefetcher     0.685531                       # Average percentage of cache occupancy ((Ratio/Tick))
system.cpu.l1i.tags.avgOccs::total                  1                       # Average percentage of cache occupancy ((Ratio/Tick))
system.cpu.l1i.tags.occupanciesTaskId::1022            1                       # Occupied blocks per task id (Count)
system.cpu.l1i.tags.occupanciesTaskId::1024            1                       # Occupied blocks per task id (Count)
system.cpu.l1i.tags.ageTaskId_1022::0               1                       # Occupied blocks per task id, per block age (Count)
system.cpu.l1i.tags.ageTaskId_1024::0               1                       # Occupied blocks per task id, per block age (Count)
system.cpu.l1i.tags.ratioOccsTaskId::1022     0.500000                       # Ratio of occupied blocks and all blocks, per task id (Ratio)
system.cpu.l1i.tags.ratioOccsTaskId::1024     0.500000                       # Ratio of occupied blocks and all blocks, per task id (Ratio)
system.cpu.l1i.tags.tagAccesses               2569423                       # Number of tag accesses (Count)
system.cpu.l1i.tags.dataAccesses              2569423                       # Number of data accesses (Count)
system.cpu.l1i.tags.power_state.pwrStateResidencyTicks::UNDEFINED  27598696682                       # Cumulative time (in ticks) in various power states (Tick)
system.cpu.mmu.dtb.rdAccesses                  182027                       # TLB accesses on read requests (Count)
system.cpu.mmu.dtb.wrAccesses                   80900                       # TLB accesses on write requests (Count)
system.cpu.mmu.dtb.rdMisses                         0                       # TLB misses on read requests (Count)
system.cpu.mmu.dtb.wrMisses                         0                       # TLB misses on write requests (Count)
system.cpu.mmu.dtb.walker.power_state.pwrStateResidencyTicks::UNDEFINED  27598696682                       # Cumulative time (in ticks) in various power states (Tick)
system.cpu.mmu.itb.rdAccesses                       0                       # TLB accesses on read requests (Count)
system.cpu.mmu.itb.wrAccesses                 1248734                       # TLB accesses on write requests (Count)
system.cpu.mmu.itb.rdMisses                         0                       # TLB misses on read requests (Count)
system.cpu.mmu.itb.wrMisses                         0                       # TLB misses on write requests (Count)
system.cpu.mmu.itb.walker.power_state.pwrStateResidencyTicks::UNDEFINED  27598696682                       # Cumulative time (in ticks) in various power states (Tick)
system.cpu.power_state.pwrStateResidencyTicks::ON  27598696682                       # Cumulative time (in ticks) in various power states (Tick)
system.cpu.thread_0.numInsts                        0                       # Number of Instructions committed (Count)
system.cpu.thread_0.numOps                          0                       # Number of Ops committed (Count)
system.cpu.thread_0.numMemRefs                      0                       # Number of Memory References (Count)
system.cpu.workload.numSyscalls                    70                       # Number of system calls (Count)
system.mem_ctrl.avgPriority_writebacks::samples      2388.00                       # Average QoS priority value for accepted requests (Count)
system.mem_ctrl.avgPriority_cpu.inst::samples     22760.00                       # Average QoS priority value for accepted requests (Count)
system.mem_ctrl.avgPriority_cpu.data::samples      5885.00                       # Average QoS priority value for accepted requests (Count)
system.mem_ctrl.avgPriority_cpu.l1d.prefetcher::samples     14600.00                       # Average QoS priority value for accepted requests (Count)
system.mem_ctrl.avgPriority_cpu.l1i.prefetcher::samples     49195.00                       # Average QoS priority value for accepted requests (Count)
system.mem_ctrl.priorityMinLatency       0.000000018750                       # per QoS priority minimum request to response latency (Second)
system.mem_ctrl.priorityMaxLatency       0.005914791294                       # per QoS priority maximum request to response latency (Second)
system.mem_ctrl.numReadWriteTurnArounds           134                       # Number of turnarounds from READ to WRITE (Count)
system.mem_ctrl.numWriteReadTurnArounds           134                       # Number of turnarounds from WRITE to READ (Count)
system.mem_ctrl.numStayReadState               196533                       # Number of times bus staying in READ state (Count)
system.mem_ctrl.numStayWriteState                2263                       # Number of times bus staying in WRITE state (Count)
system.mem_ctrl.readReqs                        95921                       # Number of read requests accepted (Count)
system.mem_ctrl.writeReqs                        4666                       # Number of write requests accepted (Count)
system.mem_ctrl.readBursts                      95921                       # Number of controller read bursts, including those serviced by the write queue (Count)
system.mem_ctrl.writeBursts                      4666                       # Number of controller write bursts, including those merged in the write queue (Count)
system.mem_ctrl.servicedByWrQ                    3481                       # Number of controller read bursts serviced by the write queue (Count)
system.mem_ctrl.mergedWrBursts                   2278                       # Number of controller write bursts merged with an existing one (Count)
system.mem_ctrl.neitherReadNorWriteReqs             0                       # Number of requests that are neither read nor write (Count)
system.mem_ctrl.avgRdQLen                        1.40                       # Average read queue length when enqueuing ((Count/Tick))
system.mem_ctrl.avgWrQLen                       24.51                       # Average write queue length when enqueuing ((Count/Tick))
system.mem_ctrl.numRdRetry                          0                       # Number of times read queue was full causing retry (Count)
system.mem_ctrl.numWrRetry                          0                       # Number of times write queue was full causing retry (Count)
system.mem_ctrl.readPktSize::0                      0                       # Read request sizes (log2) (Count)
system.mem_ctrl.readPktSize::1                      0                       # Read request sizes (log2) (Count)
system.mem_ctrl.readPktSize::2                      0                       # Read request sizes (log2) (Count)
system.mem_ctrl.readPktSize::3                      0                       # Read request sizes (log2) (Count)
system.mem_ctrl.readPktSize::4                      0                       # Read request sizes (log2) (Count)
system.mem_ctrl.readPktSize::5                      0                       # Read request sizes (log2) (Count)
system.mem_ctrl.readPktSize::6                  95921                       # Read request sizes (log2) (Count)
system.mem_ctrl.writePktSize::0                     0                       # Write request sizes (log2) (Count)
system.mem_ctrl.writePktSize::1                     0                       # Write request sizes (log2) (Count)
system.mem_ctrl.writePktSize::2                     0                       # Write request sizes (log2) (Count)
system.mem_ctrl.writePktSize::3                     0                       # Write request sizes (log2) (Count)
system.mem_ctrl.writePktSize::4                     0                       # Write request sizes (log2) (Count)
system.mem_ctrl.writePktSize::5                     0                       # Write request sizes (log2) (Count)
system.mem_ctrl.writePktSize::6                  4666                       # Write request sizes (log2) (Count)
system.mem_ctrl.rdQLenPdf::0                    61078                       # What read queue length does an incoming req see (Count)
system.mem_ctrl.rdQLenPdf::1                    31012                       # What read queue length does an incoming req see (Count)
system.mem_ctrl.rdQLenPdf::2                      347                       # What read queue length does an incoming req see (Count)
system.mem_ctrl.rdQLenPdf::3                        3                       # What read queue length does an incoming req see (Count)
system.mem_ctrl.rdQLenPdf::4                        0                       # What read queue length does an incoming req see (Count)
system.mem_ctrl.rdQLenPdf::5                        0                       # What read queue length does an incoming req see (Count)
system.mem_ctrl.rdQLenPdf::6                        0                       # What read queue length does an incoming req see (Count)
system.mem_ctrl.rdQLenPdf::7                        0                       # What read queue length does an incoming req see (Count)
system.mem_ctrl.rdQLenPdf::8                        0                       # What read queue length does an incoming req see (Count)
system.mem_ctrl.rdQLenPdf::9                        0                       # What read queue length does an incoming req see (Count)
system.mem_ctrl.rdQLenPdf::10                       0                       # What read queue length does an incoming req see (Count)
system.mem_ctrl.rdQLenPdf::11                       0                       # What read queue length does an incoming req see (Count)
system.mem_ctrl.rdQLenPdf::12                       0                       # What read queue length does an incoming req see (Count)
system.mem_ctrl.rdQLenPdf::13                       0                       # What read queue length does an incoming req see (Count)
system.mem_ctrl.rdQLenPdf::14                       0                       # What read queue length does an incoming req see (Count)
system.mem_ctrl.rdQLenPdf::15                       0                       # What read queue length does an incoming req see (Count)
system.mem_ctrl.rdQLenPdf::16                       0                       # What read queue length does an incoming req see (Count)
system.mem_ctrl.rdQLenPdf::17                       0                       # What read queue length does an incoming req see (Count)
system.mem_ctrl.rdQLenPdf::18                       0                       # What read queue length does an incoming req see (Count)
system.mem_ctrl.rdQLenPdf::19                       0                       # What read queue length does an incoming req see (Count)
system.mem_ctrl.rdQLenPdf::20                       0                       # What read queue length does an incoming req see (Count)
system.mem_ctrl.rdQLenPdf::21                       0                       # What read queue length does an incoming req see (Count)
system.mem_ctrl.rdQLenPdf::22                       0                       # What read queue length does an incoming req see (Count)
system.mem_ctrl.rdQLenPdf::23                       0                       # What read queue length does an incoming req see (Count)
system.mem_ctrl.rdQLenPdf::24                       0                       # What read queue length does an incoming req see (Count)
system.mem_ctrl.rdQLenPdf::25                       0                       # What read queue length does an incoming req see (Count)
system.mem_ctrl.rdQLenPdf::26                       0                       # What read queue length does an incoming req see (Count)
system.mem_ctrl.rdQLenPdf::27                       0                       # What read queue length does an incoming req see (Count)
system.mem_ctrl.rdQLenPdf::28                       0                       # What read queue length does an incoming req see (Count)
system.mem_ctrl.rdQLenPdf::29                       0                       # What read queue length does an incoming req see (Count)
system.mem_ctrl.rdQLenPdf::30                       0                       # What read queue length does an incoming req see (Count)
system.mem_ctrl.rdQLenPdf::31                       0                       # What read queue length does an incoming req see (Count)
system.mem_ctrl.wrQLenPdf::0                        0                       # What write queue length does an incoming req see (Count)
system.mem_ctrl.wrQLenPdf::1                        0                       # What write queue length does an incoming req see (Count)
system.mem_ctrl.wrQLenPdf::2                        0                       # What write queue length does an incoming req see (Count)
system.mem_ctrl.wrQLenPdf::3                        0                       # What write queue length does an incoming req see (Count)
system.mem_ctrl.wrQLenPdf::4                        0                       # What write queue length does an incoming req see (Count)
system.mem_ctrl.wrQLenPdf::5                        0                       # What write queue length does an incoming req see (Count)
system.mem_ctrl.wrQLenPdf::6                        0                       # What write queue length does an incoming req see (Count)
system.mem_ctrl.wrQLenPdf::7                        0                       # What write queue length does an incoming req see (Count)
system.mem_ctrl.wrQLenPdf::8                        0                       # What write queue length does an incoming req see (Count)
system.mem_ctrl.wrQLenPdf::9                        0                       # What write queue length does an incoming req see (Count)
system.mem_ctrl.wrQLenPdf::10                       0                       # What write queue length does an incoming req see (Count)
system.mem_ctrl.wrQLenPdf::11                       0                       # What write queue length does an incoming req see (Count)
system.mem_ctrl.wrQLenPdf::12                       0                       # What write queue length does an incoming req see (Count)
system.mem_ctrl.wrQLenPdf::13                       0                       # What write queue length does an incoming req see (Count)
system.mem_ctrl.wrQLenPdf::14                       0                       # What write queue length does an incoming req see (Count)
system.mem_ctrl.wrQLenPdf::15                     121                       # What write queue length does an incoming req see (Count)
system.mem_ctrl.wrQLenPdf::16                     129                       # What write queue length does an incoming req see (Count)
system.mem_ctrl.wrQLenPdf::17                     135                       # What write queue length does an incoming req see (Count)
system.mem_ctrl.wrQLenPdf::18                     133                       # What write queue length does an incoming req see (Count)
system.mem_ctrl.wrQLenPdf::19                     133                       # What write queue length does an incoming req see (Count)
system.mem_ctrl.wrQLenPdf::20                     133                       # What write queue length does an incoming req see (Count)
system.mem_ctrl.wrQLenPdf::21                     133                       # What write queue length does an incoming req see (Count)
system.mem_ctrl.wrQLenPdf::22                     133                       # What write queue length does an incoming req see (Count)
system.mem_ctrl.wrQLenPdf::23                     133                       # What write queue length does an incoming req see (Count)
system.mem_ctrl.wrQLenPdf::24                     133                       # What write queue length does an incoming req see (Count)
system.mem_ctrl.wrQLenPdf::25                     134                       # What write queue length does an incoming req see (Count)
system.mem_ctrl.wrQLenPdf::26                     134                       # What write queue length does an incoming req see (Count)
system.mem_ctrl.wrQLenPdf::27                     134                       # What write queue length does an incoming req see (Count)
system.mem_ctrl.wrQLenPdf::28                     134                       # What write queue length does an incoming req see (Count)
system.mem_ctrl.wrQLenPdf::29                     134                       # What write queue length does an incoming req see (Count)
system.mem_ctrl.wrQLenPdf::30                     134                       # What write queue length does an incoming req see (Count)
system.mem_ctrl.wrQLenPdf::31                     134                       # What write queue length does an incoming req see (Count)
system.mem_ctrl.wrQLenPdf::32                     134                       # What write queue length does an incoming req see (Count)
system.mem_ctrl.wrQLenPdf::33                       0                       # What write queue length does an incoming req see (Count)
system.mem_ctrl.wrQLenPdf::34                       0                       # What write queue length does an incoming req see (Count)
system.mem_ctrl.wrQLenPdf::35                       0                       # What write queue length does an incoming req see (Count)
system.mem_ctrl.wrQLenPdf::36                       0                       # What write queue length does an incoming req see (Count)
system.mem_ctrl.wrQLenPdf::37                       0                       # What write queue length does an incoming req see (Count)
system.mem_ctrl.wrQLenPdf::38                       0                       # What write queue length does an incoming req see (Count)
system.mem_ctrl.wrQLenPdf::39                       0                       # What write queue length does an incoming req see (Count)
system.mem_ctrl.wrQLenPdf::40                       0                       # What write queue length does an incoming req see (Count)
system.mem_ctrl.wrQLenPdf::41                       0                       # What write queue length does an incoming req see (Count)
system.mem_ctrl.wrQLenPdf::42                       0                       # What write queue length does an incoming req see (Count)
system.mem_ctrl.wrQLenPdf::43                       0                       # What write queue length does an incoming req see (Count)
system.mem_ctrl.wrQLenPdf::44                       0                       # What write queue length does an incoming req see (Count)
system.mem_ctrl.wrQLenPdf::45                       0                       # What write queue length does an incoming req see (Count)
system.mem_ctrl.wrQLenPdf::46                       0                       # What write queue length does an incoming req see (Count)
system.mem_ctrl.wrQLenPdf::47                       0                       # What write queue length does an incoming req see (Count)
system.mem_ctrl.wrQLenPdf::48                       0                       # What write queue length does an incoming req see (Count)
system.mem_ctrl.wrQLenPdf::49                       0                       # What write queue length does an incoming req see (Count)
system.mem_ctrl.wrQLenPdf::50                       0                       # What write queue length does an incoming req see (Count)
system.mem_ctrl.wrQLenPdf::51                       0                       # What write queue length does an incoming req see (Count)
system.mem_ctrl.wrQLenPdf::52                       0                       # What write queue length does an incoming req see (Count)
system.mem_ctrl.wrQLenPdf::53                       0                       # What write queue length does an incoming req see (Count)
system.mem_ctrl.wrQLenPdf::54                       0                       # What write queue length does an incoming req see (Count)
system.mem_ctrl.wrQLenPdf::55                       0                       # What write queue length does an incoming req see (Count)
system.mem_ctrl.wrQLenPdf::56                       0                       # What write queue length does an incoming req see (Count)
system.mem_ctrl.wrQLenPdf::57                       0                       # What write queue length does an incoming req see (Count)
system.mem_ctrl.wrQLenPdf::58                       0                       # What write queue length does an incoming req see (Count)
system.mem_ctrl.wrQLenPdf::59                       0                       # What write queue length does an incoming req see (Count)
system.mem_ctrl.wrQLenPdf::60                       0                       # What write queue length does an incoming req see (Count)
system.mem_ctrl.wrQLenPdf::61                       0                       # What write queue length does an incoming req see (Count)
system.mem_ctrl.wrQLenPdf::62                       0                       # What write queue length does an incoming req see (Count)
system.mem_ctrl.wrQLenPdf::63                       0                       # What write queue length does an incoming req see (Count)
system.mem_ctrl.rdPerTurnAround::samples          134                       # Reads before turning the bus around for writes (Count)
system.mem_ctrl.rdPerTurnAround::mean      691.074627                       # Reads before turning the bus around for writes (Count)
system.mem_ctrl.rdPerTurnAround::gmean     372.363518                       # Reads before turning the bus around for writes (Count)
system.mem_ctrl.rdPerTurnAround::stdev     710.943772                       # Reads before turning the bus around for writes (Count)
system.mem_ctrl.rdPerTurnAround::0-127             25     18.66%     18.66% # Reads before turning the bus around for writes (Count)
system.mem_ctrl.rdPerTurnAround::128-255           28     20.90%     39.55% # Reads before turning the bus around for writes (Count)
system.mem_ctrl.rdPerTurnAround::256-383           16     11.94%     51.49% # Reads before turning the bus around for writes (Count)
system.mem_ctrl.rdPerTurnAround::384-511           12      8.96%     60.45% # Reads before turning the bus around for writes (Count)
system.mem_ctrl.rdPerTurnAround::512-639            5      3.73%     64.18% # Reads before turning the bus around for writes (Count)
system.mem_ctrl.rdPerTurnAround::640-767            4      2.99%     67.16% # Reads before turning the bus around for writes (Count)
system.mem_ctrl.rdPerTurnAround::768-895            5      3.73%     70.90% # Reads before turning the bus around for writes (Count)
system.mem_ctrl.rdPerTurnAround::896-1023            2      1.49%     72.39% # Reads before turning the bus around for writes (Count)
system.mem_ctrl.rdPerTurnAround::1024-1151            5      3.73%     76.12% # Reads before turning the bus around for writes (Count)
system.mem_ctrl.rdPerTurnAround::1152-1279            3      2.24%     78.36% # Reads before turning the bus around for writes (Count)
system.mem_ctrl.rdPerTurnAround::1280-1407            4      2.99%     81.34% # Reads before turning the bus around for writes (Count)
system.mem_ctrl.rdPerTurnAround::1408-1535            3      2.24%     83.58% # Reads before turning the bus around for writes (Count)
system.mem_ctrl.rdPerTurnAround::1536-1663            5      3.73%     87.31% # Reads before turning the bus around for writes (Count)
system.mem_ctrl.rdPerTurnAround::1664-1791            2      1.49%     88.81% # Reads before turning the bus around for writes (Count)
system.mem_ctrl.rdPerTurnAround::1792-1919            2      1.49%     90.30% # Reads before turning the bus around for writes (Count)
system.mem_ctrl.rdPerTurnAround::1920-2047            5      3.73%     94.03% # Reads before turning the bus around for writes (Count)
system.mem_ctrl.rdPerTurnAround::2048-2175            2      1.49%     95.52% # Reads before turning the bus around for writes (Count)
system.mem_ctrl.rdPerTurnAround::2432-2559            3      2.24%     97.76% # Reads before turning the bus around for writes (Count)
system.mem_ctrl.rdPerTurnAround::2560-2687            1      0.75%     98.51% # Reads before turning the bus around for writes (Count)
system.mem_ctrl.rdPerTurnAround::2688-2815            1      0.75%     99.25% # Reads before turning the bus around for writes (Count)
system.mem_ctrl.rdPerTurnAround::2816-2943            1      0.75%    100.00% # Reads before turning the bus around for writes (Count)
system.mem_ctrl.rdPerTurnAround::total            134                       # Reads before turning the bus around for writes (Count)
system.mem_ctrl.wrPerTurnAround::samples          134                       # Writes before turning the bus around for reads (Count)
system.mem_ctrl.wrPerTurnAround::mean       17.888060                       # Writes before turning the bus around for reads (Count)
system.mem_ctrl.wrPerTurnAround::gmean      17.882522                       # Writes before turning the bus around for reads (Count)
system.mem_ctrl.wrPerTurnAround::stdev       0.436329                       # Writes before turning the bus around for reads (Count)
system.mem_ctrl.wrPerTurnAround::16                 4      2.99%      2.99% # Writes before turning the bus around for reads (Count)
system.mem_ctrl.wrPerTurnAround::17                 9      6.72%      9.70% # Writes before turning the bus around for reads (Count)
system.mem_ctrl.wrPerTurnAround::18               119     88.81%     98.51% # Writes before turning the bus around for reads (Count)
system.mem_ctrl.wrPerTurnAround::19                 2      1.49%    100.00% # Writes before turning the bus around for reads (Count)
system.mem_ctrl.wrPerTurnAround::total            134                       # Writes before turning the bus around for reads (Count)
system.mem_ctrl.bytesReadWrQ                   222784                       # Total number of bytes read from write queue (Byte)
system.mem_ctrl.bytesReadSys                  6138944                       # Total read bytes from the system interface side (Byte)
[...]
system.mem_ctrl.dram.bwInstRead::cpu.inst     52779304                       # Instruction read bandwidth from this memory ((Byte/Second))
system.mem_ctrl.dram.bwInstRead::total       52779304                       # Instruction read bandwidth from this memory ((Byte/Second))
system.mem_ctrl.dram.bwWrite::writebacks     10820221                       # Write bandwidth from this memory ((Byte/Second))
system.mem_ctrl.dram.bwWrite::total          10820221                       # Write bandwidth from this memory ((Byte/Second))
system.mem_ctrl.dram.bwTotal::writebacks     10820221                       # Total bandwidth to/from this memory ((Byte/Second))
system.mem_ctrl.dram.bwTotal::cpu.inst       52779304                       # Total bandwidth to/from this memory ((Byte/Second))
system.mem_ctrl.dram.bwTotal::cpu.data       19806153                       # Total bandwidth to/from this memory ((Byte/Second))
system.mem_ctrl.dram.bwTotal::cpu.l1d.prefetcher     35769805                       # Total bandwidth to/from this memory ((Byte/Second))
system.mem_ctrl.dram.bwTotal::cpu.l1i.prefetcher    114080749                       # Total bandwidth to/from this memory ((Byte/Second))
system.mem_ctrl.dram.bwTotal::total         233256232                       # Total bandwidth to/from this memory ((Byte/Second))
system.mem_ctrl.dram.readBursts                 92440                       # Number of DRAM read bursts (Count)
system.mem_ctrl.dram.writeBursts                 2397                       # Number of DRAM write bursts (Count)
system.mem_ctrl.dram.perBankRdBursts::0         32071                       # Per bank write bursts (Count)
system.mem_ctrl.dram.perBankRdBursts::1          7436                       # Per bank write bursts (Count)
system.mem_ctrl.dram.perBankRdBursts::2          1081                       # Per bank write bursts (Count)
system.mem_ctrl.dram.perBankRdBursts::3         10315                       # Per bank write bursts (Count)
system.mem_ctrl.dram.perBankRdBursts::4          2478                       # Per bank write bursts (Count)
system.mem_ctrl.dram.perBankRdBursts::5          7477                       # Per bank write bursts (Count)
system.mem_ctrl.dram.perBankRdBursts::6          7139                       # Per bank write bursts (Count)
system.mem_ctrl.dram.perBankRdBursts::7          7514                       # Per bank write bursts (Count)
system.mem_ctrl.dram.perBankRdBursts::8          5059                       # Per bank write bursts (Count)
system.mem_ctrl.dram.perBankRdBursts::9          1489                       # Per bank write bursts (Count)
system.mem_ctrl.dram.perBankRdBursts::10         1713                       # Per bank write bursts (Count)
system.mem_ctrl.dram.perBankRdBursts::11         4356                       # Per bank write bursts (Count)
system.mem_ctrl.dram.perBankRdBursts::12         1716                       # Per bank write bursts (Count)
system.mem_ctrl.dram.perBankRdBursts::13         1112                       # Per bank write bursts (Count)
system.mem_ctrl.dram.perBankRdBursts::14          805                       # Per bank write bursts (Count)
system.mem_ctrl.dram.perBankRdBursts::15          679                       # Per bank write bursts (Count)
system.mem_ctrl.dram.perBankWrBursts::0           118                       # Per bank write bursts (Count)
system.mem_ctrl.dram.perBankWrBursts::1           127                       # Per bank write bursts (Count)
system.mem_ctrl.dram.perBankWrBursts::2             0                       # Per bank write bursts (Count)
system.mem_ctrl.dram.perBankWrBursts::3             0                       # Per bank write bursts (Count)
system.mem_ctrl.dram.perBankWrBursts::4             0                       # Per bank write bursts (Count)
system.mem_ctrl.dram.perBankWrBursts::5             0                       # Per bank write bursts (Count)
system.mem_ctrl.dram.perBankWrBursts::6             0                       # Per bank write bursts (Count)
system.mem_ctrl.dram.perBankWrBursts::7            84                       # Per bank write bursts (Count)
system.mem_ctrl.dram.perBankWrBursts::8           133                       # Per bank write bursts (Count)
system.mem_ctrl.dram.perBankWrBursts::9            89                       # Per bank write bursts (Count)
system.mem_ctrl.dram.perBankWrBursts::10          102                       # Per bank write bursts (Count)
system.mem_ctrl.dram.perBankWrBursts::11          962                       # Per bank write bursts (Count)
system.mem_ctrl.dram.perBankWrBursts::12          615                       # Per bank write bursts (Count)
system.mem_ctrl.dram.perBankWrBursts::13            0                       # Per bank write bursts (Count)
system.mem_ctrl.dram.perBankWrBursts::14            0                       # Per bank write bursts (Count)
system.mem_ctrl.dram.perBankWrBursts::15          167                       # Per bank write bursts (Count)
system.mem_ctrl.dram.totQLat                799431351                       # Total ticks spent queuing (Tick)
system.mem_ctrl.dram.totBusLat              462200000                       # Total ticks spent in databus transfers (Tick)
system.mem_ctrl.dram.totMemAccLat          2532681351                       # Total ticks spent from burst creation until serviced by the DRAM (Tick)
system.mem_ctrl.dram.avgQLat                  8648.11                       # Average queueing delay per DRAM burst ((Tick/Count))
system.mem_ctrl.dram.avgBusLat                5000.00                       # Average bus latency per DRAM burst ((Tick/Count))
system.mem_ctrl.dram.avgMemAccLat            27398.11                       # Average memory access latency per DRAM burst ((Tick/Count))
system.mem_ctrl.dram.readRowHits                77241                       # Number of row buffer hits during reads (Count)
system.mem_ctrl.dram.writeRowHits                2030                       # Number of row buffer hits during writes (Count)
system.mem_ctrl.dram.readRowHitRate             83.56                       # Row buffer hit rate for reads (Ratio)
system.mem_ctrl.dram.writeRowHitRate            84.69                       # Row buffer hit rate for writes (Ratio)
system.mem_ctrl.dram.bytesPerActivate::samples        15560                       # Bytes accessed per row activation (Byte)
system.mem_ctrl.dram.bytesPerActivate::mean   389.988689                       # Bytes accessed per row activation (Byte)
system.mem_ctrl.dram.bytesPerActivate::gmean   266.487768                       # Bytes accessed per row activation (Byte)
system.mem_ctrl.dram.bytesPerActivate::stdev   328.455926                       # Bytes accessed per row activation (Byte)
system.mem_ctrl.dram.bytesPerActivate::0-127         2271     14.60%     14.60% # Bytes accessed per row activation (Byte)
system.mem_ctrl.dram.bytesPerActivate::128-255         4831     31.05%     45.64% # Bytes accessed per row activation (Byte)
system.mem_ctrl.dram.bytesPerActivate::256-383         2663     17.11%     62.76% # Bytes accessed per row activation (Byte)
system.mem_ctrl.dram.bytesPerActivate::384-511         1090      7.01%     69.76% # Bytes accessed per row activation (Byte)
system.mem_ctrl.dram.bytesPerActivate::512-639          848      5.45%     75.21% # Bytes accessed per row activation (Byte)
system.mem_ctrl.dram.bytesPerActivate::640-767          599      3.85%     79.06% # Bytes accessed per row activation (Byte)
system.mem_ctrl.dram.bytesPerActivate::768-895          789      5.07%     84.13% # Bytes accessed per row activation (Byte)
system.mem_ctrl.dram.bytesPerActivate::896-1023          498      3.20%     87.33% # Bytes accessed per row activation (Byte)
system.mem_ctrl.dram.bytesPerActivate::1024-1151         1971     12.67%    100.00% # Bytes accessed per row activation (Byte)
system.mem_ctrl.dram.bytesPerActivate::total        15560                       # Bytes accessed per row activation (Byte)
system.mem_ctrl.dram.dramBytesRead            5916160                       # Total bytes read (Byte)
system.mem_ctrl.dram.dramBytesWritten          153408                       # Total bytes written (Byte)
system.mem_ctrl.dram.avgRdBW               214.363746                       # Average DRAM read bandwidth in MiBytes/s ((Byte/Second))
system.mem_ctrl.dram.avgWrBW                 5.558523                       # Average DRAM write bandwidth in MiBytes/s ((Byte/Second))
system.mem_ctrl.dram.peakBW                  12800.00                       # Theoretical peak bandwidth in MiByte/s ((Byte/Second))
system.mem_ctrl.dram.busUtil                     1.72                       # Data bus utilization in percentage (Ratio)
system.mem_ctrl.dram.busUtilRead                 1.67                       # Data bus utilization in percentage for reads (Ratio)
system.mem_ctrl.dram.busUtilWrite                0.04                       # Data bus utilization in percentage for writes (Ratio)
system.mem_ctrl.dram.pageHitRate                83.59                       # Row buffer hit rate, read and write combined (Ratio)
system.mem_ctrl.dram.power_state.pwrStateResidencyTicks::UNDEFINED  27598696682                       # Cumulative time (in ticks) in various power states (Tick)
system.mem_ctrl.dram.rank0.actEnergy         73706220                       # Energy for activate commands per rank (pJ) (Joule)
system.mem_ctrl.dram.rank0.preEnergy         39164400                       # Energy for precharge commands per rank (pJ) (Joule)
system.mem_ctrl.dram.rank0.readEnergy       539148540                       # Energy for read commands per rank (pJ) (Joule)
system.mem_ctrl.dram.rank0.writeEnergy        1717380                       # Energy for write commands per rank (pJ) (Joule)
system.mem_ctrl.dram.rank0.refreshEnergy 2178284160.000000                       # Energy for refresh commands per rank (pJ) (Joule)
system.mem_ctrl.dram.rank0.actBackEnergy   9198429150                       # Energy for active background per rank (pJ) (Joule)
system.mem_ctrl.dram.rank0.preBackEnergy   2851853760                       # Energy for precharge background per rank (pJ) (Joule)
system.mem_ctrl.dram.rank0.actPowerDownEnergy            0                       # Energy for active power-down per rank (pJ) (Joule)
system.mem_ctrl.dram.rank0.prePowerDownEnergy            0                       # Energy for precharge power-down per rank (pJ) (Joule)
system.mem_ctrl.dram.rank0.selfRefreshEnergy            0                       # Energy for self refresh per rank (pJ) (Joule)
system.mem_ctrl.dram.rank0.totalEnergy    14882303610                       # Total energy per rank (pJ) (Joule)
system.mem_ctrl.dram.rank0.averagePower    539.239363                       # Core power per rank (mW) (Watt)
system.mem_ctrl.dram.rank0.totalIdleTime            0                       # Total Idle time Per DRAM Rank (Tick)
system.mem_ctrl.dram.rank0.pwrStateTime::IDLE   7317803379                       # Time in different power states (Tick)
system.mem_ctrl.dram.rank0.pwrStateTime::REF    921440000                       # Time in different power states (Tick)
system.mem_ctrl.dram.rank0.pwrStateTime::SREF            0                       # Time in different power states (Tick)
system.mem_ctrl.dram.rank0.pwrStateTime::PRE_PDN            0                       # Time in different power states (Tick)
system.mem_ctrl.dram.rank0.pwrStateTime::ACT  19359453303                       # Time in different power states (Tick)
system.mem_ctrl.dram.rank0.pwrStateTime::ACT_PDN            0                       # Time in different power states (Tick)
system.mem_ctrl.dram.rank1.actEnergy         37435020                       # Energy for activate commands per rank (pJ) (Joule)
system.mem_ctrl.dram.rank1.preEnergy         19885800                       # Energy for precharge commands per rank (pJ) (Joule)
system.mem_ctrl.dram.rank1.readEnergy       120873060                       # Energy for read commands per rank (pJ) (Joule)
system.mem_ctrl.dram.rank1.writeEnergy       10794960                       # Energy for write commands per rank (pJ) (Joule)
system.mem_ctrl.dram.rank1.refreshEnergy 2178284160.000000                       # Energy for refresh commands per rank (pJ) (Joule)
system.mem_ctrl.dram.rank1.actBackEnergy   7889938290                       # Energy for active background per rank (pJ) (Joule)
system.mem_ctrl.dram.rank1.preBackEnergy   3953740800                       # Energy for precharge background per rank (pJ) (Joule)
system.mem_ctrl.dram.rank1.actPowerDownEnergy            0                       # Energy for active power-down per rank (pJ) (Joule)
system.mem_ctrl.dram.rank1.prePowerDownEnergy            0                       # Energy for precharge power-down per rank (pJ) (Joule)
system.mem_ctrl.dram.rank1.selfRefreshEnergy            0                       # Energy for self refresh per rank (pJ) (Joule)
system.mem_ctrl.dram.rank1.totalEnergy    14210952090                       # Total energy per rank (pJ) (Joule)
system.mem_ctrl.dram.rank1.averagePower    514.913884                       # Core power per rank (mW) (Watt)
system.mem_ctrl.dram.rank1.totalIdleTime            0                       # Total Idle time Per DRAM Rank (Tick)
system.mem_ctrl.dram.rank1.pwrStateTime::IDLE  10202853945                       # Time in different power states (Tick)
system.mem_ctrl.dram.rank1.pwrStateTime::REF    921440000                       # Time in different power states (Tick)
system.mem_ctrl.dram.rank1.pwrStateTime::SREF            0                       # Time in different power states (Tick)
system.mem_ctrl.dram.rank1.pwrStateTime::PRE_PDN            0                       # Time in different power states (Tick)
system.mem_ctrl.dram.rank1.pwrStateTime::ACT  16474402737                       # Time in different power states (Tick)
system.mem_ctrl.dram.rank1.pwrStateTime::ACT_PDN            0                       # Time in different power states (Tick)
system.mem_ctrl.power_state.pwrStateResidencyTicks::UNDEFINED  27598696682                       # Cumulative time (in ticks) in various power states (Tick)
system.membus.transDist::ReadResp               93365                       # Transaction distribution (Count)
system.membus.transDist::WritebackDirty          4666                       # Transaction distribution (Count)
system.membus.transDist::CleanEvict             91255                       # Transaction distribution (Count)
system.membus.transDist::ReadExReq               2556                       # Transaction distribution (Count)
system.membus.transDist::ReadExResp              2556                       # Transaction distribution (Count)
system.membus.transDist::ReadSharedReq          93365                       # Transaction distribution (Count)
system.membus.pktCount_system.cpu.l1d.mem_side_port::system.mem_ctrl.port        71898                       # Packet count per connected requestor and responder (Count)
system.membus.pktCount_system.cpu.l1d.mem_side_port::total        71898                       # Packet count per connected requestor and responder (Count)
system.membus.pktCount_system.cpu.l1i.mem_side_port::system.mem_ctrl.port       215865                       # Packet count per connected requestor and responder (Count)
system.membus.pktCount_system.cpu.l1i.mem_side_port::total       215865                       # Packet count per connected requestor and responder (Count)
system.membus.pktCount::total                  287763                       # Packet count per connected requestor and responder (Count)
system.membus.pktSize_system.cpu.l1d.mem_side_port::system.mem_ctrl.port      1832448                       # Cumulative packet size per connected requestor and responder (Byte)
system.membus.pktSize_system.cpu.l1d.mem_side_port::total      1832448                       # Cumulative packet size per connected requestor and responder (Byte)
system.membus.pktSize_system.cpu.l1i.mem_side_port::system.mem_ctrl.port      4605120                       # Cumulative packet size per connected requestor and responder (Byte)
system.membus.pktSize_system.cpu.l1i.mem_side_port::total      4605120                       # Cumulative packet size per connected requestor and responder (Byte)
system.membus.pktSize::total                  6437568                       # Cumulative packet size per connected requestor and responder (Byte)
system.membus.snoops                                0                       # Total snoops (Count)
system.membus.snoopTraffic                          0                       # Total snoop traffic (Byte)
system.membus.snoopFanout::samples              95921                       # Request fanout histogram (Count)
system.membus.snoopFanout::mean                     0                       # Request fanout histogram (Count)
system.membus.snoopFanout::stdev                    0                       # Request fanout histogram (Count)
system.membus.snoopFanout::underflows               0      0.00%      0.00% # Request fanout histogram (Count)
system.membus.snoopFanout::0                    95921    100.00%    100.00% # Request fanout histogram (Count)
system.membus.snoopFanout::1                        0      0.00%    100.00% # Request fanout histogram (Count)
system.membus.snoopFanout::2                        0      0.00%    100.00% # Request fanout histogram (Count)
system.membus.snoopFanout::overflows                0      0.00%    100.00% # Request fanout histogram (Count)
system.membus.snoopFanout::min_value                0                       # Request fanout histogram (Count)
system.membus.snoopFanout::max_value                0                       # Request fanout histogram (Count)
system.membus.snoopFanout::total                95921                       # Request fanout histogram (Count)
system.membus.power_state.pwrStateResidencyTicks::UNDEFINED  27598696682                       # Cumulative time (in ticks) in various power states (Tick)
system.membus.reqLayer2.occupancy          2806676498                       # Layer occupancy (ticks) (Tick)
system.membus.reqLayer2.utilization               0.1                       # Layer utilization (Ratio)
system.membus.respLayer1.occupancy         1626249912                       # Layer occupancy (ticks) (Tick)
system.membus.respLayer1.utilization              0.1                       # Layer utilization (Ratio)
system.membus.respLayer2.occupancy         4862458397                       # Layer occupancy (ticks) (Tick)
system.membus.respLayer2.utilization              0.2                       # Layer utilization (Ratio)
system.membus.snoop_filter.totRequests         191842                       # Total number of requests made to the snoop filter. (Count)
system.membus.snoop_filter.hitSingleRequests        95921                       # Number of requests hitting in the snoop filter with a single holder of the requested data. (Count)
system.membus.snoop_filter.hitMultiRequests            0                       # Number of requests hitting in the snoop filter with multiple (>1) holders of the requested data. (Count)
system.membus.snoop_filter.totSnoops                0                       # Total number of snoops made to the snoop filter. (Count)
system.membus.snoop_filter.hitSingleSnoops            0                       # Number of snoops hitting in the snoop filter with a single holder of the requested data. (Count)
system.membus.snoop_filter.hitMultiSnoops            0                       # Number of snoops hitting in the snoop filter with multiple (>1) holders of the requested data. (Count)
system.workload.inst.arm                            0                       # number of arm instructions executed (Count)
system.workload.inst.quiesce                        0                       # number of quiesce instructions executed (Count)


