
---------- Begin Simulation Statistics ----------
simSeconds                                   0.210554                       # Number of seconds simulated (Second)
simTicks                                 210554216013                       # Number of ticks simulated (Tick)
finalTick                                210554216013                       # Number of ticks from beginning of simulation (restored from checkpoints and never reset) (Tick)
simFreq                                  1000000000000                       # The number of ticks per simulated second ((Tick/Second))
hostSeconds                                      8.96                       # Real time elapsed on the host (Second)
hostTickRate                              23505986512                       # The number of ticks simulated per host second (ticks/s) ((Tick/Second))
hostMemory                                    8660980                       # Number of bytes of host memory used (Byte)
simInsts                                      5602551                       # Number of instructions simulated (Count)
simOps                                       10354392                       # Number of ops (including micro ops) simulated (Count)
hostInstRate                                   624955                       # Simulator instruction rate (inst/s) ((Count/Second))
hostOpRate                                    1155014                       # Simulator op (including micro ops) rate (op/s) ((Count/Second))
system.clk_domain.clock                         13333                       # Clock period in ticks (Tick)
system.clk_domain.voltage_domain.voltage            1                       # Voltage in Volts (Volt)
system.cpu.numCycles                         15791961                       # Number of cpu cycles simulated (Cycle)
system.cpu.cpi                               2.818508                       # CPI: cycles per instruction (core level) ((Cycle/Count))
system.cpu.ipc                               0.354798                       # IPC: instructions per cycle (core level) ((Count/Cycle))
system.cpu.numWorkItemsStarted                      0                       # Number of work items this cpu started (Count)
system.cpu.numWorkItemsCompleted                    0                       # Number of work items this cpu completed (Count)
system.cpu.commitStats0.numInsts              5602951                       # Number of instructions committed (thread level) (Count)
system.cpu.commitStats0.numOps               10354972                       # Number of ops (including micro ops) committed (thread level) (Count)
system.cpu.commitStats0.numInstsNotNOP              0                       # Number of instructions committed excluding NOPs or prefetches (Count)
system.cpu.commitStats0.numOpsNotNOP                0                       # Number of Ops (including micro ops) Simulated (Count)
system.cpu.commitStats0.cpi                  2.818508                       # CPI: cycles per instruction (thread level) ((Cycle/Count))
system.cpu.commitStats0.ipc                  0.354798                       # IPC: instructions per cycle (thread level) ((Count/Cycle))
system.cpu.commitStats0.numMemRefs                  0                       # Number of memory references committed (Count)
system.cpu.commitStats0.numFpInsts             139062                       # Number of float instructions (Count)
system.cpu.commitStats0.numIntInsts          10190895                       # Number of integer instructions (Count)
system.cpu.commitStats0.numLoadInsts          1339684                       # Number of load instructions (Count)
system.cpu.commitStats0.numStoreInsts          480033                       # Number of store instructions (Count)
system.cpu.commitStats0.numVecInsts                 0                       # Number of vector instructions (Count)
system.cpu.commitStats0.committedInstType::No_OpClass        56986      0.55%      0.55% # Class of committed instruction. (Count)
system.cpu.commitStats0.committedInstType::IntAlu      8291367     80.07%     80.62% # Class of committed instruction. (Count)
system.cpu.commitStats0.committedInstType::IntMult         8045      0.08%     80.70% # Class of committed instruction. (Count)
system.cpu.commitStats0.committedInstType::IntDiv        92088      0.89%     81.59% # Class of committed instruction. (Count)
system.cpu.commitStats0.committedInstType::FloatAdd        13587      0.13%     81.72% # Class of committed instruction. (Count)
system.cpu.commitStats0.committedInstType::FloatCmp            0      0.00%     81.72% # Class of committed instruction. (Count)
system.cpu.commitStats0.committedInstType::FloatCvt         1632      0.02%     81.74% # Class of committed instruction. (Count)
system.cpu.commitStats0.committedInstType::FloatMult            0      0.00%     81.74% # Class of committed instruction. (Count)
system.cpu.commitStats0.committedInstType::FloatMultAcc            0      0.00%     81.74% # Class of committed instruction. (Count)
system.cpu.commitStats0.committedInstType::FloatDiv            0      0.00%     81.74% # Class of committed instruction. (Count)
system.cpu.commitStats0.committedInstType::FloatMisc            0      0.00%     81.74% # Class of committed instruction. (Count)
system.cpu.commitStats0.committedInstType::FloatSqrt            0      0.00%     81.74% # Class of committed instruction. (Count)
system.cpu.commitStats0.committedInstType::SimdAdd         6830      0.07%     81.80% # Class of committed instruction. (Count)
system.cpu.commitStats0.committedInstType::SimdAddAcc            0      0.00%     81.80% # Class of committed instruction. (Count)
system.cpu.commitStats0.committedInstType::SimdAlu        25565      0.25%     82.05% # Class of committed instruction. (Count)
system.cpu.commitStats0.committedInstType::SimdCmp            6      0.00%     82.05% # Class of committed instruction. (Count)
system.cpu.commitStats0.committedInstType::SimdCvt        17154      0.17%     82.21% # Class of committed instruction. (Count)
system.cpu.commitStats0.committedInstType::SimdMisc        18293      0.18%     82.39% # Class of committed instruction. (Count)
system.cpu.commitStats0.committedInstType::SimdMult            0      0.00%     82.39% # Class of committed instruction. (Count)
system.cpu.commitStats0.committedInstType::SimdMultAcc            0      0.00%     82.39% # Class of committed instruction. (Count)
system.cpu.commitStats0.committedInstType::SimdMatMultAcc            0      0.00%     82.39% # Class of committed instruction. (Count)
system.cpu.commitStats0.committedInstType::SimdShift         2194      0.02%     82.41% # Class of committed instruction. (Count)
system.cpu.commitStats0.committedInstType::SimdShiftAcc            0      0.00%     82.41% # Class of committed instruction. (Count)
system.cpu.commitStats0.committedInstType::SimdDiv            0      0.00%     82.41% # Class of committed instruction. (Count)
system.cpu.commitStats0.committedInstType::SimdSqrt            0      0.00%     82.41% # Class of committed instruction. (Count)
system.cpu.commitStats0.committedInstType::SimdFloatAdd         1502      0.01%     82.43% # Class of committed instruction. (Count)
system.cpu.commitStats0.committedInstType::SimdFloatAlu            0      0.00%     82.43% # Class of committed instruction. (Count)
system.cpu.commitStats0.committedInstType::SimdFloatCmp            0      0.00%     82.43% # Class of committed instruction. (Count)
system.cpu.commitStats0.committedInstType::SimdFloatCvt            4      0.00%     82.43% # Class of committed instruction. (Count)
system.cpu.commitStats0.committedInstType::SimdFloatDiv            2      0.00%     82.43% # Class of committed instruction. (Count)
system.cpu.commitStats0.committedInstType::SimdFloatMisc            0      0.00%     82.43% # Class of committed instruction. (Count)
system.cpu.commitStats0.committedInstType::SimdFloatMult            0      0.00%     82.43% # Class of committed instruction. (Count)
system.cpu.commitStats0.committedInstType::SimdFloatMultAcc            0      0.00%     82.43% # Class of committed instruction. (Count)
system.cpu.commitStats0.committedInstType::SimdFloatMatMultAcc            0      0.00%     82.43% # Class of committed instruction. (Count)
system.cpu.commitStats0.committedInstType::SimdFloatSqrt            0      0.00%     82.43% # Class of committed instruction. (Count)
system.cpu.commitStats0.committedInstType::SimdReduceAdd            0      0.00%     82.43% # Class of committed instruction. (Count)
system.cpu.commitStats0.committedInstType::SimdReduceAlu            0      0.00%     82.43% # Class of committed instruction. (Count)
system.cpu.commitStats0.committedInstType::SimdReduceCmp            0      0.00%     82.43% # Class of committed instruction. (Count)
system.cpu.commitStats0.committedInstType::SimdFloatReduceAdd            0      0.00%     82.43% # Class of committed instruction. (Count)
system.cpu.commitStats0.committedInstType::SimdFloatReduceCmp            0      0.00%     82.43% # Class of committed instruction. (Count)
system.cpu.commitStats0.committedInstType::SimdAes            0      0.00%     82.43% # Class of committed instruction. (Count)
system.cpu.commitStats0.committedInstType::SimdAesMix            0      0.00%     82.43% # Class of committed instruction. (Count)
system.cpu.commitStats0.committedInstType::SimdSha1Hash            0      0.00%     82.43% # Class of committed instruction. (Count)
system.cpu.commitStats0.committedInstType::SimdSha1Hash2            0      0.00%     82.43% # Class of committed instruction. (Count)
system.cpu.commitStats0.committedInstType::SimdSha256Hash            0      0.00%     82.43% # Class of committed instruction. (Count)
system.cpu.commitStats0.committedInstType::SimdSha256Hash2            0      0.00%     82.43% # Class of committed instruction. (Count)
system.cpu.commitStats0.committedInstType::SimdShaSigma2            0      0.00%     82.43% # Class of committed instruction. (Count)
system.cpu.commitStats0.committedInstType::SimdShaSigma3            0      0.00%     82.43% # Class of committed instruction. (Count)
system.cpu.commitStats0.committedInstType::SimdPredAlu            0      0.00%     82.43% # Class of committed instruction. (Count)
system.cpu.commitStats0.committedInstType::Matrix            0      0.00%     82.43% # Class of committed instruction. (Count)
system.cpu.commitStats0.committedInstType::MatrixMov            0      0.00%     82.43% # Class of committed instruction. (Count)
system.cpu.commitStats0.committedInstType::MatrixOP            0      0.00%     82.43% # Class of committed instruction. (Count)
system.cpu.commitStats0.committedInstType::MemRead      1311780     12.67%     95.09% # Class of committed instruction. (Count)
system.cpu.commitStats0.committedInstType::MemWrite       459635      4.44%     99.53% # Class of committed instruction. (Count)
system.cpu.commitStats0.committedInstType::FloatMemRead        27904      0.27%     99.80% # Class of committed instruction. (Count)
system.cpu.commitStats0.committedInstType::FloatMemWrite        20398      0.20%    100.00% # Class of committed instruction. (Count)
system.cpu.commitStats0.committedInstType::IprAccess            0      0.00%    100.00% # Class of committed instruction. (Count)
system.cpu.commitStats0.committedInstType::InstPrefetch            0      0.00%    100.00% # Class of committed instruction. (Count)
system.cpu.commitStats0.committedInstType::SimdUnitStrideLoad            0      0.00%    100.00% # Class of committed instruction. (Count)
system.cpu.commitStats0.committedInstType::SimdUnitStrideStore            0      0.00%    100.00% # Class of committed instruction. (Count)
system.cpu.commitStats0.committedInstType::SimdUnitStrideMaskLoad            0      0.00%    100.00% # Class of committed instruction. (Count)
system.cpu.commitStats0.committedInstType::SimdUnitStrideMaskStore            0      0.00%    100.00% # Class of committed instruction. (Count)
system.cpu.commitStats0.committedInstType::SimdStridedLoad            0      0.00%    100.00% # Class of committed instruction. (Count)
system.cpu.commitStats0.committedInstType::SimdStridedStore            0      0.00%    100.00% # Class of committed instruction. (Count)
system.cpu.commitStats0.committedInstType::SimdIndexedLoad            0      0.00%    100.00% # Class of committed instruction. (Count)
system.cpu.commitStats0.committedInstType::SimdIndexedStore            0      0.00%    100.00% # Class of committed instruction. (Count)
system.cpu.commitStats0.committedInstType::SimdWholeRegisterLoad            0      0.00%    100.00% # Class of committed instruction. (Count)
system.cpu.commitStats0.committedInstType::SimdWholeRegisterStore            0      0.00%    100.00% # Class of committed instruction. (Count)
system.cpu.commitStats0.committedInstType::SimdUnitStrideFaultOnlyFirstLoad            0      0.00%    100.00% # Class of committed instruction. (Count)
system.cpu.commitStats0.committedInstType::SimdUnitStrideSegmentedLoad            0      0.00%    100.00% # Class of committed instruction. (Count)
system.cpu.commitStats0.committedInstType::SimdUnitStrideSegmentedStore            0      0.00%    100.00% # Class of committed instruction. (Count)
system.cpu.commitStats0.committedInstType::SimdExt            0      0.00%    100.00% # Class of committed instruction. (Count)
system.cpu.commitStats0.committedInstType::SimdFloatExt            0      0.00%    100.00% # Class of committed instruction. (Count)
system.cpu.commitStats0.committedInstType::SimdConfig            0      0.00%    100.00% # Class of committed instruction. (Count)
system.cpu.commitStats0.committedInstType::total     10354972                       # Class of committed instruction. (Count)
system.cpu.commitStats0.committedControl::IsControl      1160105                       # Class of control type instructions committed (Count)
system.cpu.commitStats0.committedControl::IsDirectControl      1107349                       # Class of control type instructions committed (Count)
system.cpu.commitStats0.committedControl::IsIndirectControl        52431                       # Class of control type instructions committed (Count)
system.cpu.commitStats0.committedControl::IsCondControl       981055                       # Class of control type instructions committed (Count)
system.cpu.commitStats0.committedControl::IsUncondControl       178725                       # Class of control type instructions committed (Count)
system.cpu.commitStats0.committedControl::IsCall        37739                       # Class of control type instructions committed (Count)
system.cpu.commitStats0.committedControl::IsReturn        37734                       # Class of control type instructions committed (Count)
system.cpu.exec_context.thread_0.numMatAluAccesses            0                       # Number of matrix alu accesses (Count)
system.cpu.exec_context.thread_0.numCallsReturns        75473                       # Number of times a function call or return occured (Count)
system.cpu.exec_context.thread_0.numMatInsts            0                       # Number of matrix instructions (Count)
system.cpu.exec_context.thread_0.numIdleCycles            0                       # Number of idle cycles (Cycle)
system.cpu.exec_context.thread_0.numBusyCycles     15791961                       # Number of busy cycles (Cycle)
system.cpu.exec_context.thread_0.notIdleFraction            1                       # Percentage of non-idle cycles (Ratio)
system.cpu.exec_context.thread_0.idleFraction            0                       # Percentage of idle cycles (Ratio)
system.cpu.executeStats0.numInsts                   0                       # Number of executed instructions (Count)
system.cpu.executeStats0.numNop                     0                       # Number of nop insts executed (Count)
system.cpu.executeStats0.numBranches                0                       # Number of branches executed (Count)
system.cpu.executeStats0.numLoadInsts               0                       # Number of load instructions executed (Count)
system.cpu.executeStats0.numStoreInsts        1819717                       # Number of stores executed (Count)
system.cpu.executeStats0.instRate                   0                       # Inst execution rate ((Count/Cycle))
system.cpu.executeStats0.numFpAluAccesses       139062                       # Number of float alu accesses (Count)
system.cpu.executeStats0.numFpRegReads         180697                       # Number of times the floating registers were read (Count)
system.cpu.executeStats0.numFpRegWrites        106735                       # Number of times the floating registers were written (Count)
system.cpu.executeStats0.numIntAluAccesses     10190895                       # Number of integer alu accesses (Count)
system.cpu.executeStats0.numIntRegReads      12900317                       # Number of times the integer registers were read (Count)
system.cpu.executeStats0.numIntRegWrites      7791772                       # Number of times the integer registers were written (Count)
system.cpu.executeStats0.numMemRefs           1819717                       # Number of memory refs (Count)
system.cpu.executeStats0.numMiscRegReads      4076050                       # Number of times the Misc registers were read (Count)
system.cpu.executeStats0.numMiscRegWrites          918                       # Number of times the Misc registers were written (Count)
system.cpu.executeStats0.numVecAluAccesses            0                       # Number of vector alu accesses (Count)
system.cpu.executeStats0.numDiscardedOps            0                       # Number of ops (including micro ops) which were discarded before commit (Count)
system.cpu.fetchStats0.numInsts               5602951                       # Number of instructions fetched (thread level) (Count)
system.cpu.fetchStats0.numOps                10354972                       # Number of ops (including micro ops) fetched (thread level) (Count)
system.cpu.fetchStats0.fetchRate             0.354798                       # Number of inst fetches per cycle ((Count/Cycle))
system.cpu.fetchStats0.numBranches            1160105                       # Number of branches fetched (Count)
system.cpu.fetchStats0.branchRate            0.073462                       # Number of branch fetches per cycle (Ratio)
system.cpu.fetchStats0.numFetchSuspends             0                       # Number of times Execute suspended instruction fetching (Count)
system.cpu.interrupts.clk_domain.clock         213328                       # Clock period in ticks (Tick)
system.cpu.l1d.demandHits::cpu.data           1724130                       # number of demand (read+write) hits (Count)
system.cpu.l1d.demandHits::total              1724130                       # number of demand (read+write) hits (Count)
system.cpu.l1d.overallHits::cpu.data          1724130                       # number of overall hits (Count)
system.cpu.l1d.overallHits::total             1724130                       # number of overall hits (Count)
system.cpu.l1d.demandMisses::cpu.data           88260                       # number of demand (read+write) misses (Count)
system.cpu.l1d.demandMisses::total              88260                       # number of demand (read+write) misses (Count)
system.cpu.l1d.overallMisses::cpu.data          88260                       # number of overall misses (Count)
system.cpu.l1d.overallMisses::total             88260                       # number of overall misses (Count)
system.cpu.l1d.demandMissLatency::cpu.data  18543963056                       # number of demand (read+write) miss ticks (Tick)
system.cpu.l1d.demandMissLatency::total   18543963056                       # number of demand (read+write) miss ticks (Tick)
system.cpu.l1d.overallMissLatency::cpu.data  18543963056                       # number of overall miss ticks (Tick)
system.cpu.l1d.overallMissLatency::total  18543963056                       # number of overall miss ticks (Tick)
system.cpu.l1d.demandAccesses::cpu.data       1812390                       # number of demand (read+write) accesses (Count)
system.cpu.l1d.demandAccesses::total          1812390                       # number of demand (read+write) accesses (Count)
system.cpu.l1d.overallAccesses::cpu.data      1812390                       # number of overall (read+write) accesses (Count)
system.cpu.l1d.overallAccesses::total         1812390                       # number of overall (read+write) accesses (Count)
system.cpu.l1d.demandMissRate::cpu.data      0.048698                       # miss rate for demand accesses (Ratio)
system.cpu.l1d.demandMissRate::total         0.048698                       # miss rate for demand accesses (Ratio)
system.cpu.l1d.overallMissRate::cpu.data     0.048698                       # miss rate for overall accesses (Ratio)
system.cpu.l1d.overallMissRate::total        0.048698                       # miss rate for overall accesses (Ratio)
system.cpu.l1d.demandAvgMissLatency::cpu.data 210106.084931                       # average overall miss latency in ticks ((Tick/Count))
system.cpu.l1d.demandAvgMissLatency::total 210106.084931                       # average overall miss latency in ticks ((Tick/Count))
system.cpu.l1d.overallAvgMissLatency::cpu.data 210106.084931                       # average overall miss latency ((Tick/Count))
system.cpu.l1d.overallAvgMissLatency::total 210106.084931                       # average overall miss latency ((Tick/Count))
system.cpu.l1d.blockedCycles::no_mshrs              0                       # number of cycles access was blocked (Cycle)
system.cpu.l1d.blockedCycles::no_targets            0                       # number of cycles access was blocked (Cycle)
system.cpu.l1d.blockedCauses::no_mshrs              0                       # number of times access was blocked (Count)
system.cpu.l1d.blockedCauses::no_targets            0                       # number of times access was blocked (Count)
system.cpu.l1d.avgBlocked::no_mshrs               nan                       # average number of cycles each access was blocked ((Cycle/Count))
system.cpu.l1d.avgBlocked::no_targets             nan                       # average number of cycles each access was blocked ((Cycle/Count))
system.cpu.l1d.writebacks::writebacks           28737                       # number of writebacks (Count)
system.cpu.l1d.writebacks::total                28737                       # number of writebacks (Count)
system.cpu.l1d.demandMshrHits::cpu.data           596                       # number of demand (read+write) MSHR hits (Count)
system.cpu.l1d.demandMshrHits::total              596                       # number of demand (read+write) MSHR hits (Count)
system.cpu.l1d.overallMshrHits::cpu.data          596                       # number of overall MSHR hits (Count)
system.cpu.l1d.overallMshrHits::total             596                       # number of overall MSHR hits (Count)
system.cpu.l1d.demandMshrMisses::cpu.data        87664                       # number of demand (read+write) MSHR misses (Count)
system.cpu.l1d.demandMshrMisses::total          87664                       # number of demand (read+write) MSHR misses (Count)
system.cpu.l1d.overallMshrMisses::cpu.data        87664                       # number of overall MSHR misses (Count)
system.cpu.l1d.overallMshrMisses::cpu.l1d.prefetcher        81647                       # number of overall MSHR misses (Count)
system.cpu.l1d.overallMshrMisses::total        169311                       # number of overall MSHR misses (Count)
system.cpu.l1d.demandMshrMissLatency::cpu.data  17326286832                       # number of demand (read+write) MSHR miss ticks (Tick)
system.cpu.l1d.demandMshrMissLatency::total  17326286832                       # number of demand (read+write) MSHR miss ticks (Tick)
system.cpu.l1d.overallMshrMissLatency::cpu.data  17326286832                       # number of overall MSHR miss ticks (Tick)
system.cpu.l1d.overallMshrMissLatency::cpu.l1d.prefetcher  19503753316                       # number of overall MSHR miss ticks (Tick)
system.cpu.l1d.overallMshrMissLatency::total  36830040148                       # number of overall MSHR miss ticks (Tick)
system.cpu.l1d.demandMshrMissRate::cpu.data     0.048369                       # mshr miss ratio for demand accesses (Ratio)
system.cpu.l1d.demandMshrMissRate::total     0.048369                       # mshr miss ratio for demand accesses (Ratio)
system.cpu.l1d.overallMshrMissRate::cpu.data     0.048369                       # mshr miss ratio for overall accesses (Ratio)
system.cpu.l1d.overallMshrMissRate::cpu.l1d.prefetcher          inf                       # mshr miss ratio for overall accesses (Ratio)
system.cpu.l1d.overallMshrMissRate::total     0.093419                       # mshr miss ratio for overall accesses (Ratio)
system.cpu.l1d.demandAvgMshrMissLatency::cpu.data 197644.264829                       # average overall mshr miss latency ((Tick/Count))
system.cpu.l1d.demandAvgMshrMissLatency::total 197644.264829                       # average overall mshr miss latency ((Tick/Count))
system.cpu.l1d.overallAvgMshrMissLatency::cpu.data 197644.264829                       # average overall mshr miss latency ((Tick/Count))
system.cpu.l1d.overallAvgMshrMissLatency::cpu.l1d.prefetcher 238878.995138                       # average overall mshr miss latency ((Tick/Count))
system.cpu.l1d.overallAvgMshrMissLatency::total 217528.926933                       # average overall mshr miss latency ((Tick/Count))
system.cpu.l1d.replacements                    169288                       # number of replacements (Count)
system.cpu.l1d.HardPFReq.mshrMisses::cpu.l1d.prefetcher        81647                       # number of HardPFReq MSHR misses (Count)
system.cpu.l1d.HardPFReq.mshrMisses::total        81647                       # number of HardPFReq MSHR misses (Count)
system.cpu.l1d.HardPFReq.mshrMissLatency::cpu.l1d.prefetcher  19503753316                       # number of HardPFReq MSHR miss ticks (Tick)
system.cpu.l1d.HardPFReq.mshrMissLatency::total  19503753316                       # number of HardPFReq MSHR miss ticks (Tick)
system.cpu.l1d.HardPFReq.mshrMissRate::cpu.l1d.prefetcher          inf                       # mshr miss rate for HardPFReq accesses (Ratio)
system.cpu.l1d.HardPFReq.mshrMissRate::total          inf                       # mshr miss rate for HardPFReq accesses (Ratio)
system.cpu.l1d.HardPFReq.avgMshrMissLatency::cpu.l1d.prefetcher 238878.995138                       # average HardPFReq mshr miss latency ((Tick/Count))
system.cpu.l1d.HardPFReq.avgMshrMissLatency::total 238878.995138                       # average HardPFReq mshr miss latency ((Tick/Count))
system.cpu.l1d.LockedRMWReadReq.hits::cpu.data         3415                       # number of LockedRMWReadReq hits (Count)
system.cpu.l1d.LockedRMWReadReq.hits::total         3415                       # number of LockedRMWReadReq hits (Count)
system.cpu.l1d.LockedRMWReadReq.misses::cpu.data           42                       # number of LockedRMWReadReq misses (Count)
system.cpu.l1d.LockedRMWReadReq.misses::total           42                       # number of LockedRMWReadReq misses (Count)
system.cpu.l1d.LockedRMWReadReq.missLatency::cpu.data      8066465                       # number of LockedRMWReadReq miss ticks (Tick)
system.cpu.l1d.LockedRMWReadReq.missLatency::total      8066465                       # number of LockedRMWReadReq miss ticks (Tick)
system.cpu.l1d.LockedRMWReadReq.accesses::cpu.data         3457                       # number of LockedRMWReadReq accesses(hits+misses) (Count)
system.cpu.l1d.LockedRMWReadReq.accesses::total         3457                       # number of LockedRMWReadReq accesses(hits+misses) (Count)
system.cpu.l1d.LockedRMWReadReq.missRate::cpu.data     0.012149                       # miss rate for LockedRMWReadReq accesses (Ratio)
system.cpu.l1d.LockedRMWReadReq.missRate::total     0.012149                       # miss rate for LockedRMWReadReq accesses (Ratio)
system.cpu.l1d.LockedRMWReadReq.avgMissLatency::cpu.data 192058.690476                       # average LockedRMWReadReq miss latency ((Tick/Count))
system.cpu.l1d.LockedRMWReadReq.avgMissLatency::total 192058.690476                       # average LockedRMWReadReq miss latency ((Tick/Count))
system.cpu.l1d.LockedRMWReadReq.mshrHits::cpu.data            1                       # number of LockedRMWReadReq MSHR hits (Count)
system.cpu.l1d.LockedRMWReadReq.mshrHits::total            1                       # number of LockedRMWReadReq MSHR hits (Count)
system.cpu.l1d.LockedRMWReadReq.mshrMisses::cpu.data           41                       # number of LockedRMWReadReq MSHR misses (Count)
system.cpu.l1d.LockedRMWReadReq.mshrMisses::total           41                       # number of LockedRMWReadReq MSHR misses (Count)
system.cpu.l1d.LockedRMWReadReq.mshrMissLatency::cpu.data     61078473                       # number of LockedRMWReadReq MSHR miss ticks (Tick)
system.cpu.l1d.LockedRMWReadReq.mshrMissLatency::total     61078473                       # number of LockedRMWReadReq MSHR miss ticks (Tick)
system.cpu.l1d.LockedRMWReadReq.mshrMissRate::cpu.data     0.011860                       # mshr miss rate for LockedRMWReadReq accesses (Ratio)
system.cpu.l1d.LockedRMWReadReq.mshrMissRate::total     0.011860                       # mshr miss rate for LockedRMWReadReq accesses (Ratio)
system.cpu.l1d.LockedRMWReadReq.avgMshrMissLatency::cpu.data 1489718.853659                       # average LockedRMWReadReq mshr miss latency ((Tick/Count))
system.cpu.l1d.LockedRMWReadReq.avgMshrMissLatency::total 1489718.853659                       # average LockedRMWReadReq mshr miss latency ((Tick/Count))
system.cpu.l1d.LockedRMWWriteReq.hits::cpu.data         3457                       # number of LockedRMWWriteReq hits (Count)
system.cpu.l1d.LockedRMWWriteReq.hits::total         3457                       # number of LockedRMWWriteReq hits (Count)
system.cpu.l1d.LockedRMWWriteReq.accesses::cpu.data         3457                       # number of LockedRMWWriteReq accesses(hits+misses) (Count)
system.cpu.l1d.LockedRMWWriteReq.accesses::total         3457                       # number of LockedRMWWriteReq accesses(hits+misses) (Count)
system.cpu.l1d.ReadReq.hits::cpu.data         1264311                       # number of ReadReq hits (Count)
system.cpu.l1d.ReadReq.hits::total            1264311                       # number of ReadReq hits (Count)
system.cpu.l1d.ReadReq.misses::cpu.data         71697                       # number of ReadReq misses (Count)
system.cpu.l1d.ReadReq.misses::total            71697                       # number of ReadReq misses (Count)
system.cpu.l1d.ReadReq.missLatency::cpu.data  15480266317                       # number of ReadReq miss ticks (Tick)
system.cpu.l1d.ReadReq.missLatency::total  15480266317                       # number of ReadReq miss ticks (Tick)
system.cpu.l1d.ReadReq.accesses::cpu.data      1336008                       # number of ReadReq accesses(hits+misses) (Count)
system.cpu.l1d.ReadReq.accesses::total        1336008                       # number of ReadReq accesses(hits+misses) (Count)
system.cpu.l1d.ReadReq.missRate::cpu.data     0.053665                       # miss rate for ReadReq accesses (Ratio)
system.cpu.l1d.ReadReq.missRate::total       0.053665                       # miss rate for ReadReq accesses (Ratio)
system.cpu.l1d.ReadReq.avgMissLatency::cpu.data 215912.329902                       # average ReadReq miss latency ((Tick/Count))
system.cpu.l1d.ReadReq.avgMissLatency::total 215912.329902                       # average ReadReq miss latency ((Tick/Count))
system.cpu.l1d.ReadReq.mshrHits::cpu.data          324                       # number of ReadReq MSHR hits (Count)
system.cpu.l1d.ReadReq.mshrHits::total            324                       # number of ReadReq MSHR hits (Count)
system.cpu.l1d.ReadReq.mshrMisses::cpu.data        71373                       # number of ReadReq MSHR misses (Count)
system.cpu.l1d.ReadReq.mshrMisses::total        71373                       # number of ReadReq MSHR misses (Count)
system.cpu.l1d.ReadReq.mshrMissLatency::cpu.data  14503010749                       # number of ReadReq MSHR miss ticks (Tick)
system.cpu.l1d.ReadReq.mshrMissLatency::total  14503010749                       # number of ReadReq MSHR miss ticks (Tick)
system.cpu.l1d.ReadReq.mshrMissRate::cpu.data     0.053423                       # mshr miss rate for ReadReq accesses (Ratio)
system.cpu.l1d.ReadReq.mshrMissRate::total     0.053423                       # mshr miss rate for ReadReq accesses (Ratio)
system.cpu.l1d.ReadReq.avgMshrMissLatency::cpu.data 203200.240273                       # average ReadReq mshr miss latency ((Tick/Count))
system.cpu.l1d.ReadReq.avgMshrMissLatency::total 203200.240273                       # average ReadReq mshr miss latency ((Tick/Count))
system.cpu.l1d.WriteReq.hits::cpu.data         459819                       # number of WriteReq hits (Count)
system.cpu.l1d.WriteReq.hits::total            459819                       # number of WriteReq hits (Count)
system.cpu.l1d.WriteReq.misses::cpu.data        16563                       # number of WriteReq misses (Count)
system.cpu.l1d.WriteReq.misses::total           16563                       # number of WriteReq misses (Count)
system.cpu.l1d.WriteReq.missLatency::cpu.data   3063696739                       # number of WriteReq miss ticks (Tick)
system.cpu.l1d.WriteReq.missLatency::total   3063696739                       # number of WriteReq miss ticks (Tick)
system.cpu.l1d.WriteReq.accesses::cpu.data       476382                       # number of WriteReq accesses(hits+misses) (Count)
system.cpu.l1d.WriteReq.accesses::total        476382                       # number of WriteReq accesses(hits+misses) (Count)
system.cpu.l1d.WriteReq.missRate::cpu.data     0.034768                       # miss rate for WriteReq accesses (Ratio)
system.cpu.l1d.WriteReq.missRate::total      0.034768                       # miss rate for WriteReq accesses (Ratio)
system.cpu.l1d.WriteReq.avgMissLatency::cpu.data 184972.332247                       # average WriteReq miss latency ((Tick/Count))
system.cpu.l1d.WriteReq.avgMissLatency::total 184972.332247                       # average WriteReq miss latency ((Tick/Count))
system.cpu.l1d.WriteReq.mshrHits::cpu.data          272                       # number of WriteReq MSHR hits (Count)
system.cpu.l1d.WriteReq.mshrHits::total           272                       # number of WriteReq MSHR hits (Count)
system.cpu.l1d.WriteReq.mshrMisses::cpu.data        16291                       # number of WriteReq MSHR misses (Count)
system.cpu.l1d.WriteReq.mshrMisses::total        16291                       # number of WriteReq MSHR misses (Count)
system.cpu.l1d.WriteReq.mshrMissLatency::cpu.data   2823276083                       # number of WriteReq MSHR miss ticks (Tick)
system.cpu.l1d.WriteReq.mshrMissLatency::total   2823276083                       # number of WriteReq MSHR miss ticks (Tick)
system.cpu.l1d.WriteReq.mshrMissRate::cpu.data     0.034197                       # mshr miss rate for WriteReq accesses (Ratio)
system.cpu.l1d.WriteReq.mshrMissRate::total     0.034197                       # mshr miss rate for WriteReq accesses (Ratio)
system.cpu.l1d.WriteReq.avgMshrMissLatency::cpu.data 173302.810325                       # average WriteReq mshr miss latency ((Tick/Count))
system.cpu.l1d.WriteReq.avgMshrMissLatency::total 173302.810325                       # average WriteReq mshr miss latency ((Tick/Count))
system.cpu.l1d.power_state.pwrStateResidencyTicks::UNDEFINED 210554216013                       # Cumulative time (in ticks) in various power states (Tick)
system.cpu.l1d.prefetcher.demandMshrMisses        87664                       # demands not covered by prefetchs (Count)
system.cpu.l1d.prefetcher.pfIssued             107387                       # number of hwpf issued (Count)
system.cpu.l1d.prefetcher.pfUnused              60710                       # number of HardPF blocks evicted w/o reference (Count)
system.cpu.l1d.prefetcher.pfUseful              20330                       # number of useful prefetch (Count)
system.cpu.l1d.prefetcher.pfUsefulButMiss            0                       # number of hit on prefetch but cache block is not in an usable state (Count)
system.cpu.l1d.prefetcher.accuracy           0.189315                       # accuracy of the prefetcher (Count)
system.cpu.l1d.prefetcher.coverage           0.188251                       # coverage brought by this prefetcher (Count)
system.cpu.l1d.prefetcher.pfHitInCache          25737                       # number of prefetches hitting in cache (Count)
system.cpu.l1d.prefetcher.pfHitInMSHR               0                       # number of prefetches hitting in a MSHR (Count)
system.cpu.l1d.prefetcher.pfHitInWB                 3                       # number of prefetches hit in the Write Buffer (Count)
system.cpu.l1d.prefetcher.pfLate                25740                       # number of late prefetches (hitting in cache, MSHR or WB) (Count)
system.cpu.l1d.prefetcher.pfIdentified         107391                       # number of prefetch candidates identified (Count)
system.cpu.l1d.prefetcher.pfBufferHit               0                       # number of redundant prefetches already in prefetch queue (Count)
system.cpu.l1d.prefetcher.pfInCache                 0                       # number of redundant prefetches already in cache/mshr dropped (Count)
system.cpu.l1d.prefetcher.pfRemovedDemand            4                       # number of prefetches dropped due to a demand for the same address (Count)
system.cpu.l1d.prefetcher.pfRemovedFull             0                       # number of prefetches dropped due to prefetch queue size (Count)
system.cpu.l1d.prefetcher.pfSpanPage             1241                       # number of prefetches that crossed the page (Count)
system.cpu.l1d.prefetcher.pfUsefulSpanPage          193                       # number of prefetches that is useful and crossed the page (Count)
system.cpu.l1d.prefetcher.power_state.pwrStateResidencyTicks::UNDEFINED 210554216013                       # Cumulative time (in ticks) in various power states (Tick)
system.cpu.l1d.tags.tagsInUse               63.995504                       # Average ticks per tags in use ((Tick/Count))
system.cpu.l1d.tags.totalRefs                 1890650                       # Total number of references to valid blocks. (Count)
system.cpu.l1d.tags.sampledRefs                169288                       # Sample count of references to valid blocks. (Count)
system.cpu.l1d.tags.avgRefs                 11.168246                       # Average number of references to valid blocks. ((Count/Count))
system.cpu.l1d.tags.warmupTick                 479988                       # The tick when the warmup percentage was hit. (Tick)
system.cpu.l1d.tags.occupancies::cpu.data    35.886873                       # Average occupied blocks per tick, per requestor ((Count/Tick))
system.cpu.l1d.tags.occupancies::cpu.l1d.prefetcher    28.108631                       # Average occupied blocks per tick, per requestor ((Count/Tick))
system.cpu.l1d.tags.avgOccs::cpu.data        0.560732                       # Average percentage of cache occupancy ((Ratio/Tick))
system.cpu.l1d.tags.avgOccs::cpu.l1d.prefetcher     0.439197                       # Average percentage of cache occupancy ((Ratio/Tick))
system.cpu.l1d.tags.avgOccs::total           0.999930                       # Average percentage of cache occupancy ((Ratio/Tick))
system.cpu.l1d.tags.occupanciesTaskId::1022           30                       # Occupied blocks per task id (Count)
system.cpu.l1d.tags.occupanciesTaskId::1024           34                       # Occupied blocks per task id (Count)
system.cpu.l1d.tags.ageTaskId_1022::0               6                       # Occupied blocks per task id, per block age (Count)
system.cpu.l1d.tags.ageTaskId_1022::1               7                       # Occupied blocks per task id, per block age (Count)
system.cpu.l1d.tags.ageTaskId_1022::2              14                       # Occupied blocks per task id, per block age (Count)
system.cpu.l1d.tags.ageTaskId_1022::3               3                       # Occupied blocks per task id, per block age (Count)
system.cpu.l1d.tags.ageTaskId_1024::0               5                       # Occupied blocks per task id, per block age (Count)
system.cpu.l1d.tags.ageTaskId_1024::1              10                       # Occupied blocks per task id, per block age (Count)
system.cpu.l1d.tags.ageTaskId_1024::2               3                       # Occupied blocks per task id, per block age (Count)
system.cpu.l1d.tags.ageTaskId_1024::3              16                       # Occupied blocks per task id, per block age (Count)
system.cpu.l1d.tags.ratioOccsTaskId::1022     0.468750                       # Ratio of occupied blocks and all blocks, per task id (Ratio)
system.cpu.l1d.tags.ratioOccsTaskId::1024     0.531250                       # Ratio of occupied blocks and all blocks, per task id (Ratio)
system.cpu.l1d.tags.tagAccesses               3807960                       # Number of tag accesses (Count)
system.cpu.l1d.tags.dataAccesses              3807960                       # Number of data accesses (Count)
system.cpu.l1d.tags.power_state.pwrStateResidencyTicks::UNDEFINED 210554216013                       # Cumulative time (in ticks) in various power states (Tick)
system.cpu.l1i.demandHits::cpu.inst           7051382                       # number of demand (read+write) hits (Count)
system.cpu.l1i.demandHits::total              7051382                       # number of demand (read+write) hits (Count)
system.cpu.l1i.overallHits::cpu.inst          7051382                       # number of overall hits (Count)
system.cpu.l1i.overallHits::total             7051382                       # number of overall hits (Count)
system.cpu.l1i.demandMisses::cpu.inst          293465                       # number of demand (read+write) misses (Count)
system.cpu.l1i.demandMisses::total             293465                       # number of demand (read+write) misses (Count)
system.cpu.l1i.overallMisses::cpu.inst         293465                       # number of overall misses (Count)
system.cpu.l1i.overallMisses::total            293465                       # number of overall misses (Count)
system.cpu.l1i.demandMissLatency::cpu.inst  59996473384                       # number of demand (read+write) miss ticks (Tick)
system.cpu.l1i.demandMissLatency::total   59996473384                       # number of demand (read+write) miss ticks (Tick)
system.cpu.l1i.overallMissLatency::cpu.inst  59996473384                       # number of overall miss ticks (Tick)
system.cpu.l1i.overallMissLatency::total  59996473384                       # number of overall miss ticks (Tick)
system.cpu.l1i.demandAccesses::cpu.inst       7344847                       # number of demand (read+write) accesses (Count)
system.cpu.l1i.demandAccesses::total          7344847                       # number of demand (read+write) accesses (Count)
system.cpu.l1i.overallAccesses::cpu.inst      7344847                       # number of overall (read+write) accesses (Count)
system.cpu.l1i.overallAccesses::total         7344847                       # number of overall (read+write) accesses (Count)
system.cpu.l1i.demandMissRate::cpu.inst      0.039955                       # miss rate for demand accesses (Ratio)
system.cpu.l1i.demandMissRate::total         0.039955                       # miss rate for demand accesses (Ratio)
system.cpu.l1i.overallMissRate::cpu.inst     0.039955                       # miss rate for overall accesses (Ratio)
system.cpu.l1i.overallMissRate::total        0.039955                       # miss rate for overall accesses (Ratio)
system.cpu.l1i.demandAvgMissLatency::cpu.inst 204441.665561                       # average overall miss latency in ticks ((Tick/Count))
system.cpu.l1i.demandAvgMissLatency::total 204441.665561                       # average overall miss latency in ticks ((Tick/Count))
system.cpu.l1i.overallAvgMissLatency::cpu.inst 204441.665561                       # average overall miss latency ((Tick/Count))
system.cpu.l1i.overallAvgMissLatency::total 204441.665561                       # average overall miss latency ((Tick/Count))
system.cpu.l1i.blockedCycles::no_mshrs              0                       # number of cycles access was blocked (Cycle)
system.cpu.l1i.blockedCycles::no_targets            0                       # number of cycles access was blocked (Cycle)
system.cpu.l1i.blockedCauses::no_mshrs              0                       # number of times access was blocked (Count)
system.cpu.l1i.blockedCauses::no_targets            0                       # number of times access was blocked (Count)
system.cpu.l1i.avgBlocked::no_mshrs               nan                       # average number of cycles each access was blocked ((Cycle/Count))
system.cpu.l1i.avgBlocked::no_targets             nan                       # average number of cycles each access was blocked ((Cycle/Count))
system.cpu.l1i.demandMshrHits::cpu.inst         15420                       # number of demand (read+write) MSHR hits (Count)
system.cpu.l1i.demandMshrHits::total            15420                       # number of demand (read+write) MSHR hits (Count)
system.cpu.l1i.overallMshrHits::cpu.inst        15420                       # number of overall MSHR hits (Count)
system.cpu.l1i.overallMshrHits::total           15420                       # number of overall MSHR hits (Count)
system.cpu.l1i.demandMshrMisses::cpu.inst       278045                       # number of demand (read+write) MSHR misses (Count)
system.cpu.l1i.demandMshrMisses::total         278045                       # number of demand (read+write) MSHR misses (Count)
system.cpu.l1i.overallMshrMisses::cpu.inst       278045                       # number of overall MSHR misses (Count)
system.cpu.l1i.overallMshrMisses::cpu.l1i.prefetcher       389757                       # number of overall MSHR misses (Count)
system.cpu.l1i.overallMshrMisses::total        667802                       # number of overall MSHR misses (Count)
system.cpu.l1i.demandMshrMissLatency::cpu.inst  55027330949                       # number of demand (read+write) MSHR miss ticks (Tick)
system.cpu.l1i.demandMshrMissLatency::total  55027330949                       # number of demand (read+write) MSHR miss ticks (Tick)
system.cpu.l1i.overallMshrMissLatency::cpu.inst  55027330949                       # number of overall MSHR miss ticks (Tick)
system.cpu.l1i.overallMshrMissLatency::cpu.l1i.prefetcher  85739376223                       # number of overall MSHR miss ticks (Tick)
system.cpu.l1i.overallMshrMissLatency::total 140766707172                       # number of overall MSHR miss ticks (Tick)
system.cpu.l1i.demandMshrMissRate::cpu.inst     0.037856                       # mshr miss ratio for demand accesses (Ratio)
system.cpu.l1i.demandMshrMissRate::total     0.037856                       # mshr miss ratio for demand accesses (Ratio)
system.cpu.l1i.overallMshrMissRate::cpu.inst     0.037856                       # mshr miss ratio for overall accesses (Ratio)
system.cpu.l1i.overallMshrMissRate::cpu.l1i.prefetcher          inf                       # mshr miss ratio for overall accesses (Ratio)
system.cpu.l1i.overallMshrMissRate::total     0.090921                       # mshr miss ratio for overall accesses (Ratio)
system.cpu.l1i.demandAvgMshrMissLatency::cpu.inst 197908.003917                       # average overall mshr miss latency ((Tick/Count))
system.cpu.l1i.demandAvgMshrMissLatency::total 197908.003917                       # average overall mshr miss latency ((Tick/Count))
system.cpu.l1i.overallAvgMshrMissLatency::cpu.inst 197908.003917                       # average overall mshr miss latency ((Tick/Count))
system.cpu.l1i.overallAvgMshrMissLatency::cpu.l1i.prefetcher 219981.619889                       # average overall mshr miss latency ((Tick/Count))
system.cpu.l1i.overallAvgMshrMissLatency::total 210791.083543                       # average overall mshr miss latency ((Tick/Count))
system.cpu.l1i.replacements                    667799                       # number of replacements (Count)
system.cpu.l1i.HardPFReq.mshrMisses::cpu.l1i.prefetcher       389757                       # number of HardPFReq MSHR misses (Count)
system.cpu.l1i.HardPFReq.mshrMisses::total       389757                       # number of HardPFReq MSHR misses (Count)
system.cpu.l1i.HardPFReq.mshrMissLatency::cpu.l1i.prefetcher  85739376223                       # number of HardPFReq MSHR miss ticks (Tick)
system.cpu.l1i.HardPFReq.mshrMissLatency::total  85739376223                       # number of HardPFReq MSHR miss ticks (Tick)
system.cpu.l1i.HardPFReq.mshrMissRate::cpu.l1i.prefetcher          inf                       # mshr miss rate for HardPFReq accesses (Ratio)
system.cpu.l1i.HardPFReq.mshrMissRate::total          inf                       # mshr miss rate for HardPFReq accesses (Ratio)
system.cpu.l1i.HardPFReq.avgMshrMissLatency::cpu.l1i.prefetcher 219981.619889                       # average HardPFReq mshr miss latency ((Tick/Count))
system.cpu.l1i.HardPFReq.avgMshrMissLatency::total 219981.619889                       # average HardPFReq mshr miss latency ((Tick/Count))
system.cpu.l1i.ReadReq.hits::cpu.inst         7051382                       # number of ReadReq hits (Count)
system.cpu.l1i.ReadReq.hits::total            7051382                       # number of ReadReq hits (Count)
system.cpu.l1i.ReadReq.misses::cpu.inst        293465                       # number of ReadReq misses (Count)
system.cpu.l1i.ReadReq.misses::total           293465                       # number of ReadReq misses (Count)
system.cpu.l1i.ReadReq.missLatency::cpu.inst  59996473384                       # number of ReadReq miss ticks (Tick)
system.cpu.l1i.ReadReq.missLatency::total  59996473384                       # number of ReadReq miss ticks (Tick)
system.cpu.l1i.ReadReq.accesses::cpu.inst      7344847                       # number of ReadReq accesses(hits+misses) (Count)
system.cpu.l1i.ReadReq.accesses::total        7344847                       # number of ReadReq accesses(hits+misses) (Count)
system.cpu.l1i.ReadReq.missRate::cpu.inst     0.039955                       # miss rate for ReadReq accesses (Ratio)
system.cpu.l1i.ReadReq.missRate::total       0.039955                       # miss rate for ReadReq accesses (Ratio)
system.cpu.l1i.ReadReq.avgMissLatency::cpu.inst 204441.665561                       # average ReadReq miss latency ((Tick/Count))
system.cpu.l1i.ReadReq.avgMissLatency::total 204441.665561                       # average ReadReq miss latency ((Tick/Count))
system.cpu.l1i.ReadReq.mshrHits::cpu.inst        15420                       # number of ReadReq MSHR hits (Count)
system.cpu.l1i.ReadReq.mshrHits::total          15420                       # number of ReadReq MSHR hits (Count)
system.cpu.l1i.ReadReq.mshrMisses::cpu.inst       278045                       # number of ReadReq MSHR misses (Count)
system.cpu.l1i.ReadReq.mshrMisses::total       278045                       # number of ReadReq MSHR misses (Count)
system.cpu.l1i.ReadReq.mshrMissLatency::cpu.inst  55027330949                       # number of ReadReq MSHR miss ticks (Tick)
system.cpu.l1i.ReadReq.mshrMissLatency::total  55027330949                       # number of ReadReq MSHR miss ticks (Tick)
system.cpu.l1i.ReadReq.mshrMissRate::cpu.inst     0.037856                       # mshr miss rate for ReadReq accesses (Ratio)
system.cpu.l1i.ReadReq.mshrMissRate::total     0.037856                       # mshr miss rate for ReadReq accesses (Ratio)
system.cpu.l1i.ReadReq.avgMshrMissLatency::cpu.inst 197908.003917                       # average ReadReq mshr miss latency ((Tick/Count))
system.cpu.l1i.ReadReq.avgMshrMissLatency::total 197908.003917                       # average ReadReq mshr miss latency ((Tick/Count))
system.cpu.l1i.power_state.pwrStateResidencyTicks::UNDEFINED 210554216013                       # Cumulative time (in ticks) in various power states (Tick)
system.cpu.l1i.prefetcher.demandMshrMisses       278045                       # demands not covered by prefetchs (Count)
system.cpu.l1i.prefetcher.pfIssued             452659                       # number of hwpf issued (Count)
system.cpu.l1i.prefetcher.pfUnused             207186                       # number of HardPF blocks evicted w/o reference (Count)
system.cpu.l1i.prefetcher.pfUseful             167149                       # number of useful prefetch (Count)
system.cpu.l1i.prefetcher.pfUsefulButMiss            0                       # number of hit on prefetch but cache block is not in an usable state (Count)
system.cpu.l1i.prefetcher.accuracy           0.369260                       # accuracy of the prefetcher (Count)
system.cpu.l1i.prefetcher.coverage           0.375452                       # coverage brought by this prefetcher (Count)
system.cpu.l1i.prefetcher.pfHitInCache          62894                       # number of prefetches hitting in cache (Count)
system.cpu.l1i.prefetcher.pfHitInMSHR               0                       # number of prefetches hitting in a MSHR (Count)
system.cpu.l1i.prefetcher.pfHitInWB                 8                       # number of prefetches hit in the Write Buffer (Count)
system.cpu.l1i.prefetcher.pfLate                62902                       # number of late prefetches (hitting in cache, MSHR or WB) (Count)
system.cpu.l1i.prefetcher.pfIdentified         452659                       # number of prefetch candidates identified (Count)
system.cpu.l1i.prefetcher.pfBufferHit               0                       # number of redundant prefetches already in prefetch queue (Count)
system.cpu.l1i.prefetcher.pfInCache                 0                       # number of redundant prefetches already in cache/mshr dropped (Count)
system.cpu.l1i.prefetcher.pfRemovedDemand            0                       # number of prefetches dropped due to a demand for the same address (Count)
system.cpu.l1i.prefetcher.pfRemovedFull             0                       # number of prefetches dropped due to prefetch queue size (Count)
system.cpu.l1i.prefetcher.pfSpanPage             7955                       # number of prefetches that crossed the page (Count)
system.cpu.l1i.prefetcher.pfUsefulSpanPage         3597                       # number of prefetches that is useful and crossed the page (Count)
system.cpu.l1i.prefetcher.power_state.pwrStateResidencyTicks::UNDEFINED 210554216013                       # Cumulative time (in ticks) in various power states (Tick)
system.cpu.l1i.tags.tagsInUse                1.999998                       # Average ticks per tags in use ((Tick/Count))
system.cpu.l1i.tags.totalRefs                 7719180                       # Total number of references to valid blocks. (Count)
system.cpu.l1i.tags.sampledRefs                667799                       # Sample count of references to valid blocks. (Count)
system.cpu.l1i.tags.avgRefs                 11.559137                       # Average number of references to valid blocks. ((Count/Count))
system.cpu.l1i.tags.warmupTick                 199995                       # The tick when the warmup percentage was hit. (Tick)
system.cpu.l1i.tags.occupancies::cpu.inst     0.792992                       # Average occupied blocks per tick, per requestor ((Count/Tick))
system.cpu.l1i.tags.occupancies::cpu.l1i.prefetcher     1.207006                       # Average occupied blocks per tick, per requestor ((Count/Tick))
system.cpu.l1i.tags.avgOccs::cpu.inst        0.396496                       # Average percentage of cache occupancy ((Ratio/Tick))
system.cpu.l1i.tags.avgOccs::cpu.l1i.prefetcher     0.603503                       # Average percentage of cache occupancy ((Ratio/Tick))
system.cpu.l1i.tags.avgOccs::total           0.999999                       # Average percentage of cache occupancy ((Ratio/Tick))
system.cpu.l1i.tags.occupanciesTaskId::1022            1                       # Occupied blocks per task id (Count)
system.cpu.l1i.tags.occupanciesTaskId::1024            1                       # Occupied blocks per task id (Count)
system.cpu.l1i.tags.ageTaskId_1022::0               1                       # Occupied blocks per task id, per block age (Count)
system.cpu.l1i.tags.ageTaskId_1024::0               1                       # Occupied blocks per task id, per block age (Count)
system.cpu.l1i.tags.ratioOccsTaskId::1022     0.500000                       # Ratio of occupied blocks and all blocks, per task id (Ratio)
system.cpu.l1i.tags.ratioOccsTaskId::1024     0.500000                       # Ratio of occupied blocks and all blocks, per task id (Ratio)
system.cpu.l1i.tags.tagAccesses              15357495                       # Number of tag accesses (Count)
system.cpu.l1i.tags.dataAccesses             15357495                       # Number of data accesses (Count)
system.cpu.l1i.tags.power_state.pwrStateResidencyTicks::UNDEFINED 210554216013                       # Cumulative time (in ticks) in various power states (Tick)
system.cpu.mmu.dtb.rdAccesses                 1339717                       # TLB accesses on read requests (Count)
system.cpu.mmu.dtb.wrAccesses                  480048                       # TLB accesses on write requests (Count)
system.cpu.mmu.dtb.rdMisses                      1974                       # TLB misses on read requests (Count)
system.cpu.mmu.dtb.wrMisses                       475                       # TLB misses on write requests (Count)
system.cpu.mmu.dtb.walker.power_state.pwrStateResidencyTicks::UNDEFINED 210554216013                       # Cumulative time (in ticks) in various power states (Tick)
system.cpu.mmu.itb.rdAccesses                       0                       # TLB accesses on read requests (Count)
system.cpu.mmu.itb.wrAccesses                 7344987                       # TLB accesses on write requests (Count)
system.cpu.mmu.itb.rdMisses                         0                       # TLB misses on read requests (Count)
system.cpu.mmu.itb.wrMisses                       537                       # TLB misses on write requests (Count)
system.cpu.mmu.itb.walker.power_state.pwrStateResidencyTicks::UNDEFINED 210554216013                       # Cumulative time (in ticks) in various power states (Tick)
system.cpu.power_state.pwrStateResidencyTicks::ON 210554216013                       # Cumulative time (in ticks) in various power states (Tick)
system.cpu.thread_0.numInsts                        0                       # Number of Instructions committed (Count)
system.cpu.thread_0.numOps                          0                       # Number of Ops committed (Count)
system.cpu.thread_0.numMemRefs                      0                       # Number of Memory References (Count)
system.cpu.workload.numSyscalls                   120                       # Number of system calls (Count)
system.mem_ctrl.avgPriority_writebacks::samples     12335.00                       # Average QoS priority value for accepted requests (Count)
system.mem_ctrl.avgPriority_cpu.inst::samples    278045.00                       # Average QoS priority value for accepted requests (Count)
system.mem_ctrl.avgPriority_cpu.data::samples     70168.00                       # Average QoS priority value for accepted requests (Count)
system.mem_ctrl.avgPriority_cpu.l1d.prefetcher::samples     77600.00                       # Average QoS priority value for accepted requests (Count)
system.mem_ctrl.avgPriority_cpu.l1i.prefetcher::samples    389757.00                       # Average QoS priority value for accepted requests (Count)
system.mem_ctrl.priorityMinLatency       0.000000018750                       # per QoS priority minimum request to response latency (Second)
system.mem_ctrl.priorityMaxLatency       0.029614838778                       # per QoS priority maximum request to response latency (Second)
system.mem_ctrl.numReadWriteTurnArounds           685                       # Number of turnarounds from READ to WRITE (Count)
system.mem_ctrl.numWriteReadTurnArounds           685                       # Number of turnarounds from WRITE to READ (Count)
system.mem_ctrl.numStayReadState              1713126                       # Number of times bus staying in READ state (Count)
system.mem_ctrl.numStayWriteState               11641                       # Number of times bus staying in WRITE state (Count)
system.mem_ctrl.readReqs                       837154                       # Number of read requests accepted (Count)
system.mem_ctrl.writeReqs                       28737                       # Number of write requests accepted (Count)
system.mem_ctrl.readBursts                     837154                       # Number of controller read bursts, including those serviced by the write queue (Count)
system.mem_ctrl.writeBursts                     28737                       # Number of controller write bursts, including those merged in the write queue (Count)
system.mem_ctrl.servicedByWrQ                   21584                       # Number of controller read bursts serviced by the write queue (Count)
system.mem_ctrl.mergedWrBursts                  16402                       # Number of controller write bursts merged with an existing one (Count)
system.mem_ctrl.neitherReadNorWriteReqs             0                       # Number of requests that are neither read nor write (Count)
system.mem_ctrl.avgRdQLen                        1.44                       # Average read queue length when enqueuing ((Count/Tick))
system.mem_ctrl.avgWrQLen                       24.94                       # Average write queue length when enqueuing ((Count/Tick))
system.mem_ctrl.numRdRetry                          0                       # Number of times read queue was full causing retry (Count)
system.mem_ctrl.numWrRetry                          0                       # Number of times write queue was full causing retry (Count)
system.mem_ctrl.readPktSize::0                      0                       # Read request sizes (log2) (Count)
system.mem_ctrl.readPktSize::1                      0                       # Read request sizes (log2) (Count)
system.mem_ctrl.readPktSize::2                      0                       # Read request sizes (log2) (Count)
system.mem_ctrl.readPktSize::3                      0                       # Read request sizes (log2) (Count)
system.mem_ctrl.readPktSize::4                      0                       # Read request sizes (log2) (Count)
system.mem_ctrl.readPktSize::5                      0                       # Read request sizes (log2) (Count)
system.mem_ctrl.readPktSize::6                 837154                       # Read request sizes (log2) (Count)
system.mem_ctrl.writePktSize::0                     0                       # Write request sizes (log2) (Count)
system.mem_ctrl.writePktSize::1                     0                       # Write request sizes (log2) (Count)
system.mem_ctrl.writePktSize::2                     0                       # Write request sizes (log2) (Count)
system.mem_ctrl.writePktSize::3                     0                       # Write request sizes (log2) (Count)
system.mem_ctrl.writePktSize::4                     0                       # Write request sizes (log2) (Count)
system.mem_ctrl.writePktSize::5                     0                       # Write request sizes (log2) (Count)
system.mem_ctrl.writePktSize::6                 28737                       # Write request sizes (log2) (Count)
system.mem_ctrl.rdQLenPdf::0                   549324                       # What read queue length does an incoming req see (Count)
system.mem_ctrl.rdQLenPdf::1                   263525                       # What read queue length does an incoming req see (Count)
system.mem_ctrl.rdQLenPdf::2                     2668                       # What read queue length does an incoming req see (Count)
system.mem_ctrl.rdQLenPdf::3                       53                       # What read queue length does an incoming req see (Count)
system.mem_ctrl.rdQLenPdf::4                        0                       # What read queue length does an incoming req see (Count)
system.mem_ctrl.rdQLenPdf::5                        0                       # What read queue length does an incoming req see (Count)
system.mem_ctrl.rdQLenPdf::6                        0                       # What read queue length does an incoming req see (Count)
system.mem_ctrl.rdQLenPdf::7                        0                       # What read queue length does an incoming req see (Count)
system.mem_ctrl.rdQLenPdf::8                        0                       # What read queue length does an incoming req see (Count)
system.mem_ctrl.rdQLenPdf::9                        0                       # What read queue length does an incoming req see (Count)
system.mem_ctrl.rdQLenPdf::10                       0                       # What read queue length does an incoming req see (Count)
system.mem_ctrl.rdQLenPdf::11                       0                       # What read queue length does an incoming req see (Count)
system.mem_ctrl.rdQLenPdf::12                       0                       # What read queue length does an incoming req see (Count)
system.mem_ctrl.rdQLenPdf::13                       0                       # What read queue length does an incoming req see (Count)
system.mem_ctrl.rdQLenPdf::14                       0                       # What read queue length does an incoming req see (Count)
system.mem_ctrl.rdQLenPdf::15                       0                       # What read queue length does an incoming req see (Count)
system.mem_ctrl.rdQLenPdf::16                       0                       # What read queue length does an incoming req see (Count)
system.mem_ctrl.rdQLenPdf::17                       0                       # What read queue length does an incoming req see (Count)
system.mem_ctrl.rdQLenPdf::18                       0                       # What read queue length does an incoming req see (Count)
system.mem_ctrl.rdQLenPdf::19                       0                       # What read queue length does an incoming req see (Count)
system.mem_ctrl.rdQLenPdf::20                       0                       # What read queue length does an incoming req see (Count)
system.mem_ctrl.rdQLenPdf::21                       0                       # What read queue length does an incoming req see (Count)
system.mem_ctrl.rdQLenPdf::22                       0                       # What read queue length does an incoming req see (Count)
system.mem_ctrl.rdQLenPdf::23                       0                       # What read queue length does an incoming req see (Count)
system.mem_ctrl.rdQLenPdf::24                       0                       # What read queue length does an incoming req see (Count)
system.mem_ctrl.rdQLenPdf::25                       0                       # What read queue length does an incoming req see (Count)
system.mem_ctrl.rdQLenPdf::26                       0                       # What read queue length does an incoming req see (Count)
system.mem_ctrl.rdQLenPdf::27                       0                       # What read queue length does an incoming req see (Count)
system.mem_ctrl.rdQLenPdf::28                       0                       # What read queue length does an incoming req see (Count)
system.mem_ctrl.rdQLenPdf::29                       0                       # What read queue length does an incoming req see (Count)
system.mem_ctrl.rdQLenPdf::30                       0                       # What read queue length does an incoming req see (Count)
system.mem_ctrl.rdQLenPdf::31                       0                       # What read queue length does an incoming req see (Count)
system.mem_ctrl.wrQLenPdf::0                        1                       # What write queue length does an incoming req see (Count)
system.mem_ctrl.wrQLenPdf::1                        1                       # What write queue length does an incoming req see (Count)
system.mem_ctrl.wrQLenPdf::2                        1                       # What write queue length does an incoming req see (Count)
system.mem_ctrl.wrQLenPdf::3                        1                       # What write queue length does an incoming req see (Count)
system.mem_ctrl.wrQLenPdf::4                        1                       # What write queue length does an incoming req see (Count)
system.mem_ctrl.wrQLenPdf::5                        1                       # What write queue length does an incoming req see (Count)
system.mem_ctrl.wrQLenPdf::6                        1                       # What write queue length does an incoming req see (Count)
system.mem_ctrl.wrQLenPdf::7                        1                       # What write queue length does an incoming req see (Count)
system.mem_ctrl.wrQLenPdf::8                        1                       # What write queue length does an incoming req see (Count)
system.mem_ctrl.wrQLenPdf::9                        1                       # What write queue length does an incoming req see (Count)
system.mem_ctrl.wrQLenPdf::10                       1                       # What write queue length does an incoming req see (Count)
system.mem_ctrl.wrQLenPdf::11                       1                       # What write queue length does an incoming req see (Count)
system.mem_ctrl.wrQLenPdf::12                       1                       # What write queue length does an incoming req see (Count)
system.mem_ctrl.wrQLenPdf::13                       1                       # What write queue length does an incoming req see (Count)
system.mem_ctrl.wrQLenPdf::14                       1                       # What write queue length does an incoming req see (Count)
system.mem_ctrl.wrQLenPdf::15                     650                       # What write queue length does an incoming req see (Count)
system.mem_ctrl.wrQLenPdf::16                     683                       # What write queue length does an incoming req see (Count)
system.mem_ctrl.wrQLenPdf::17                     693                       # What write queue length does an incoming req see (Count)
system.mem_ctrl.wrQLenPdf::18                     686                       # What write queue length does an incoming req see (Count)
system.mem_ctrl.wrQLenPdf::19                     686                       # What write queue length does an incoming req see (Count)
system.mem_ctrl.wrQLenPdf::20                     686                       # What write queue length does an incoming req see (Count)
system.mem_ctrl.wrQLenPdf::21                     686                       # What write queue length does an incoming req see (Count)
system.mem_ctrl.wrQLenPdf::22                     687                       # What write queue length does an incoming req see (Count)
system.mem_ctrl.wrQLenPdf::23                     687                       # What write queue length does an incoming req see (Count)
system.mem_ctrl.wrQLenPdf::24                     686                       # What write queue length does an incoming req see (Count)
system.mem_ctrl.wrQLenPdf::25                     686                       # What write queue length does an incoming req see (Count)
system.mem_ctrl.wrQLenPdf::26                     686                       # What write queue length does an incoming req see (Count)
system.mem_ctrl.wrQLenPdf::27                     686                       # What write queue length does an incoming req see (Count)
system.mem_ctrl.wrQLenPdf::28                     686                       # What write queue length does an incoming req see (Count)
system.mem_ctrl.wrQLenPdf::29                     687                       # What write queue length does an incoming req see (Count)
system.mem_ctrl.wrQLenPdf::30                     686                       # What write queue length does an incoming req see (Count)
system.mem_ctrl.wrQLenPdf::31                     686                       # What write queue length does an incoming req see (Count)
system.mem_ctrl.wrQLenPdf::32                     685                       # What write queue length does an incoming req see (Count)
system.mem_ctrl.wrQLenPdf::33                       2                       # What write queue length does an incoming req see (Count)
system.mem_ctrl.wrQLenPdf::34                       0                       # What write queue length does an incoming req see (Count)
system.mem_ctrl.wrQLenPdf::35                       0                       # What write queue length does an incoming req see (Count)
system.mem_ctrl.wrQLenPdf::36                       0                       # What write queue length does an incoming req see (Count)
system.mem_ctrl.wrQLenPdf::37                       0                       # What write queue length does an incoming req see (Count)
system.mem_ctrl.wrQLenPdf::38                       0                       # What write queue length does an incoming req see (Count)
system.mem_ctrl.wrQLenPdf::39                       0                       # What write queue length does an incoming req see (Count)
system.mem_ctrl.wrQLenPdf::40                       0                       # What write queue length does an incoming req see (Count)
system.mem_ctrl.wrQLenPdf::41                       0                       # What write queue length does an incoming req see (Count)
system.mem_ctrl.wrQLenPdf::42                       0                       # What write queue length does an incoming req see (Count)
system.mem_ctrl.wrQLenPdf::43                       0                       # What write queue length does an incoming req see (Count)
system.mem_ctrl.wrQLenPdf::44                       0                       # What write queue length does an incoming req see (Count)
system.mem_ctrl.wrQLenPdf::45                       0                       # What write queue length does an incoming req see (Count)
system.mem_ctrl.wrQLenPdf::46                       0                       # What write queue length does an incoming req see (Count)
system.mem_ctrl.wrQLenPdf::47                       0                       # What write queue length does an incoming req see (Count)
system.mem_ctrl.wrQLenPdf::48                       0                       # What write queue length does an incoming req see (Count)
system.mem_ctrl.wrQLenPdf::49                       0                       # What write queue length does an incoming req see (Count)
system.mem_ctrl.wrQLenPdf::50                       0                       # What write queue length does an incoming req see (Count)
system.mem_ctrl.wrQLenPdf::51                       0                       # What write queue length does an incoming req see (Count)
system.mem_ctrl.wrQLenPdf::52                       0                       # What write queue length does an incoming req see (Count)
system.mem_ctrl.wrQLenPdf::53                       0                       # What write queue length does an incoming req see (Count)
system.mem_ctrl.wrQLenPdf::54                       0                       # What write queue length does an incoming req see (Count)
system.mem_ctrl.wrQLenPdf::55                       0                       # What write queue length does an incoming req see (Count)
system.mem_ctrl.wrQLenPdf::56                       0                       # What write queue length does an incoming req see (Count)
system.mem_ctrl.wrQLenPdf::57                       0                       # What write queue length does an incoming req see (Count)
system.mem_ctrl.wrQLenPdf::58                       0                       # What write queue length does an incoming req see (Count)
system.mem_ctrl.wrQLenPdf::59                       0                       # What write queue length does an incoming req see (Count)
system.mem_ctrl.wrQLenPdf::60                       0                       # What write queue length does an incoming req see (Count)
system.mem_ctrl.wrQLenPdf::61                       0                       # What write queue length does an incoming req see (Count)
system.mem_ctrl.wrQLenPdf::62                       0                       # What write queue length does an incoming req see (Count)
system.mem_ctrl.wrQLenPdf::63                       0                       # What write queue length does an incoming req see (Count)
system.mem_ctrl.rdPerTurnAround::samples          685                       # Reads before turning the bus around for writes (Count)
system.mem_ctrl.rdPerTurnAround::mean     1190.423358                       # Reads before turning the bus around for writes (Count)
system.mem_ctrl.rdPerTurnAround::gmean     384.918922                       # Reads before turning the bus around for writes (Count)
system.mem_ctrl.rdPerTurnAround::stdev    1890.032881                       # Reads before turning the bus around for writes (Count)
system.mem_ctrl.rdPerTurnAround::0-511            422     61.61%     61.61% # Reads before turning the bus around for writes (Count)
system.mem_ctrl.rdPerTurnAround::512-1023           58      8.47%     70.07% # Reads before turning the bus around for writes (Count)
system.mem_ctrl.rdPerTurnAround::1024-1535           25      3.65%     73.72% # Reads before turning the bus around for writes (Count)
system.mem_ctrl.rdPerTurnAround::1536-2047           29      4.23%     77.96% # Reads before turning the bus around for writes (Count)
system.mem_ctrl.rdPerTurnAround::2048-2559           39      5.69%     83.65% # Reads before turning the bus around for writes (Count)
system.mem_ctrl.rdPerTurnAround::2560-3071           34      4.96%     88.61% # Reads before turning the bus around for writes (Count)
system.mem_ctrl.rdPerTurnAround::3072-3583           21      3.07%     91.68% # Reads before turning the bus around for writes (Count)
system.mem_ctrl.rdPerTurnAround::3584-4095            9      1.31%     92.99% # Reads before turning the bus around for writes (Count)
system.mem_ctrl.rdPerTurnAround::4096-4607           10      1.46%     94.45% # Reads before turning the bus around for writes (Count)
system.mem_ctrl.rdPerTurnAround::4608-5119            4      0.58%     95.04% # Reads before turning the bus around for writes (Count)
system.mem_ctrl.rdPerTurnAround::5120-5631            3      0.44%     95.47% # Reads before turning the bus around for writes (Count)
system.mem_ctrl.rdPerTurnAround::5632-6143            4      0.58%     96.06% # Reads before turning the bus around for writes (Count)
system.mem_ctrl.rdPerTurnAround::6144-6655            6      0.88%     96.93% # Reads before turning the bus around for writes (Count)
system.mem_ctrl.rdPerTurnAround::6656-7167            2      0.29%     97.23% # Reads before turning the bus around for writes (Count)
system.mem_ctrl.rdPerTurnAround::7168-7679            5      0.73%     97.96% # Reads before turning the bus around for writes (Count)
system.mem_ctrl.rdPerTurnAround::7680-8191            3      0.44%     98.39% # Reads before turning the bus around for writes (Count)
system.mem_ctrl.rdPerTurnAround::8192-8703            4      0.58%     98.98% # Reads before turning the bus around for writes (Count)
[...]
system.mem_ctrl.dram.bwInstRead::total       82564288                       # Instruction read bandwidth from this memory ((Byte/Second))
system.mem_ctrl.dram.bwWrite::writebacks     27857349                       # Write bandwidth from this memory ((Byte/Second))
system.mem_ctrl.dram.bwWrite::total          27857349                       # Write bandwidth from this memory ((Byte/Second))
system.mem_ctrl.dram.bwTotal::writebacks     27857349                       # Total bandwidth to/from this memory ((Byte/Second))
system.mem_ctrl.dram.bwTotal::cpu.inst       82564288                       # Total bandwidth to/from this memory ((Byte/Second))
system.mem_ctrl.dram.bwTotal::cpu.data       47850576                       # Total bandwidth to/from this memory ((Byte/Second))
system.mem_ctrl.dram.bwTotal::cpu.l1d.prefetcher     41462101                       # Total bandwidth to/from this memory ((Byte/Second))
system.mem_ctrl.dram.bwTotal::cpu.l1i.prefetcher    156508635                       # Total bandwidth to/from this memory ((Byte/Second))
system.mem_ctrl.dram.bwTotal::total         356242949                       # Total bandwidth to/from this memory ((Byte/Second))
system.mem_ctrl.dram.readBursts                 17022                       # Number of DRAM read bursts (Count)
system.mem_ctrl.dram.writeBursts                  960                       # Number of DRAM write bursts (Count)
system.mem_ctrl.dram.perBankRdBursts::0           643                       # Per bank write bursts (Count)
system.mem_ctrl.dram.perBankRdBursts::1           466                       # Per bank write bursts (Count)
system.mem_ctrl.dram.perBankRdBursts::2           241                       # Per bank write bursts (Count)
system.mem_ctrl.dram.perBankRdBursts::3           143                       # Per bank write bursts (Count)
system.mem_ctrl.dram.perBankRdBursts::4           397                       # Per bank write bursts (Count)
system.mem_ctrl.dram.perBankRdBursts::5          2208                       # Per bank write bursts (Count)
system.mem_ctrl.dram.perBankRdBursts::6          5393                       # Per bank write bursts (Count)
system.mem_ctrl.dram.perBankRdBursts::7           518                       # Per bank write bursts (Count)
system.mem_ctrl.dram.perBankRdBursts::8          1249                       # Per bank write bursts (Count)
system.mem_ctrl.dram.perBankRdBursts::9           660                       # Per bank write bursts (Count)
system.mem_ctrl.dram.perBankRdBursts::10          196                       # Per bank write bursts (Count)
system.mem_ctrl.dram.perBankRdBursts::11         2926                       # Per bank write bursts (Count)
system.mem_ctrl.dram.perBankRdBursts::12          326                       # Per bank write bursts (Count)
system.mem_ctrl.dram.perBankRdBursts::13          788                       # Per bank write bursts (Count)
system.mem_ctrl.dram.perBankRdBursts::14          571                       # Per bank write bursts (Count)
system.mem_ctrl.dram.perBankRdBursts::15          297                       # Per bank write bursts (Count)
system.mem_ctrl.dram.perBankWrBursts::0           360                       # Per bank write bursts (Count)
system.mem_ctrl.dram.perBankWrBursts::1           129                       # Per bank write bursts (Count)
system.mem_ctrl.dram.perBankWrBursts::2            15                       # Per bank write bursts (Count)
system.mem_ctrl.dram.perBankWrBursts::3             3                       # Per bank write bursts (Count)
system.mem_ctrl.dram.perBankWrBursts::4             5                       # Per bank write bursts (Count)
system.mem_ctrl.dram.perBankWrBursts::5           127                       # Per bank write bursts (Count)
system.mem_ctrl.dram.perBankWrBursts::6            13                       # Per bank write bursts (Count)
system.mem_ctrl.dram.perBankWrBursts::7             1                       # Per bank write bursts (Count)
system.mem_ctrl.dram.perBankWrBursts::8            24                       # Per bank write bursts (Count)
system.mem_ctrl.dram.perBankWrBursts::9             0                       # Per bank write bursts (Count)
system.mem_ctrl.dram.perBankWrBursts::10            0                       # Per bank write bursts (Count)
system.mem_ctrl.dram.perBankWrBursts::11            0                       # Per bank write bursts (Count)
system.mem_ctrl.dram.perBankWrBursts::12           29                       # Per bank write bursts (Count)
system.mem_ctrl.dram.perBankWrBursts::13          110                       # Per bank write bursts (Count)
system.mem_ctrl.dram.perBankWrBursts::14          120                       # Per bank write bursts (Count)
system.mem_ctrl.dram.perBankWrBursts::15           24                       # Per bank write bursts (Count)
system.mem_ctrl.dram.totQLat                177343645                       # Total ticks spent queuing (Tick)
system.mem_ctrl.dram.totBusLat               85110000                       # Total ticks spent in databus transfers (Tick)
system.mem_ctrl.dram.totMemAccLat           496506145                       # Total ticks spent from burst creation until serviced by the DRAM (Tick)
system.mem_ctrl.dram.avgQLat                 10418.50                       # Average queueing delay per DRAM burst ((Tick/Count))
system.mem_ctrl.dram.avgBusLat                5000.00                       # Average bus latency per DRAM burst ((Tick/Count))
system.mem_ctrl.dram.avgMemAccLat            29168.50                       # Average memory access latency per DRAM burst ((Tick/Count))
system.mem_ctrl.dram.readRowHits                13213                       # Number of row buffer hits during reads (Count)
system.mem_ctrl.dram.writeRowHits                 805                       # Number of row buffer hits during writes (Count)
system.mem_ctrl.dram.readRowHitRate             77.62                       # Row buffer hit rate for reads (Ratio)
system.mem_ctrl.dram.writeRowHitRate            83.85                       # Row buffer hit rate for writes (Ratio)
system.mem_ctrl.dram.bytesPerActivate::samples         3968                       # Bytes accessed per row activation (Byte)
system.mem_ctrl.dram.bytesPerActivate::mean   290.177419                       # Bytes accessed per row activation (Byte)
system.mem_ctrl.dram.bytesPerActivate::gmean   200.307887                       # Bytes accessed per row activation (Byte)
system.mem_ctrl.dram.bytesPerActivate::stdev   270.945450                       # Bytes accessed per row activation (Byte)
system.mem_ctrl.dram.bytesPerActivate::0-127          779     19.63%     19.63% # Bytes accessed per row activation (Byte)
system.mem_ctrl.dram.bytesPerActivate::128-255         1619     40.80%     60.43% # Bytes accessed per row activation (Byte)
system.mem_ctrl.dram.bytesPerActivate::256-383          435     10.96%     71.40% # Bytes accessed per row activation (Byte)
system.mem_ctrl.dram.bytesPerActivate::384-511          409     10.31%     81.70% # Bytes accessed per row activation (Byte)
system.mem_ctrl.dram.bytesPerActivate::512-639          169      4.26%     85.96% # Bytes accessed per row activation (Byte)
system.mem_ctrl.dram.bytesPerActivate::640-767          173      4.36%     90.32% # Bytes accessed per row activation (Byte)
system.mem_ctrl.dram.bytesPerActivate::768-895           71      1.79%     92.11% # Bytes accessed per row activation (Byte)
system.mem_ctrl.dram.bytesPerActivate::896-1023           75      1.89%     94.00% # Bytes accessed per row activation (Byte)
system.mem_ctrl.dram.bytesPerActivate::1024-1151          238      6.00%    100.00% # Bytes accessed per row activation (Byte)
system.mem_ctrl.dram.bytesPerActivate::total         3968                       # Bytes accessed per row activation (Byte)
system.mem_ctrl.dram.dramBytesRead            1089408                       # Total bytes read (Byte)
system.mem_ctrl.dram.dramBytesWritten           61440                       # Total bytes written (Byte)
system.mem_ctrl.dram.avgRdBW               306.322867                       # Average DRAM read bandwidth in MiBytes/s ((Byte/Second))
system.mem_ctrl.dram.avgWrBW                17.275875                       # Average DRAM write bandwidth in MiBytes/s ((Byte/Second))
system.mem_ctrl.dram.peakBW                  12800.00                       # Theoretical peak bandwidth in MiByte/s ((Byte/Second))
system.mem_ctrl.dram.busUtil                     2.53                       # Data bus utilization in percentage (Ratio)
system.mem_ctrl.dram.busUtilRead                 2.39                       # Data bus utilization in percentage for reads (Ratio)
system.mem_ctrl.dram.busUtilWrite                0.13                       # Data bus utilization in percentage for writes (Ratio)
system.mem_ctrl.dram.pageHitRate                77.96                       # Row buffer hit rate, read and write combined (Ratio)
system.mem_ctrl.dram.power_state.pwrStateResidencyTicks::UNDEFINED   3556404421                       # Cumulative time (in ticks) in various power states (Tick)
system.mem_ctrl.dram.rank0.actEnergy         15372420                       # Energy for activate commands per rank (pJ) (Joule)
system.mem_ctrl.dram.rank0.preEnergy          8182020                       # Energy for precharge commands per rank (pJ) (Joule)
system.mem_ctrl.dram.rank0.readEnergy        71464260                       # Energy for read commands per rank (pJ) (Joule)
system.mem_ctrl.dram.rank0.writeEnergy        3408660                       # Energy for write commands per rank (pJ) (Joule)
system.mem_ctrl.dram.rank0.refreshEnergy 280890480.000000                       # Energy for refresh commands per rank (pJ) (Joule)
system.mem_ctrl.dram.rank0.actBackEnergy   1494889410                       # Energy for active background per rank (pJ) (Joule)
system.mem_ctrl.dram.rank0.preBackEnergy    106890240                       # Energy for precharge background per rank (pJ) (Joule)
system.mem_ctrl.dram.rank0.actPowerDownEnergy            0                       # Energy for active power-down per rank (pJ) (Joule)
system.mem_ctrl.dram.rank0.prePowerDownEnergy            0                       # Energy for precharge power-down per rank (pJ) (Joule)
system.mem_ctrl.dram.rank0.selfRefreshEnergy            0                       # Energy for self refresh per rank (pJ) (Joule)
system.mem_ctrl.dram.rank0.totalEnergy     1981097490                       # Total energy per rank (pJ) (Joule)
system.mem_ctrl.dram.rank0.averagePower    557.050677                       # Core power per rank (mW) (Watt)
system.mem_ctrl.dram.rank0.totalIdleTime            0                       # Total Idle time Per DRAM Rank (Tick)
system.mem_ctrl.dram.rank0.pwrStateTime::IDLE    265365716                       # Time in different power states (Tick)
system.mem_ctrl.dram.rank0.pwrStateTime::REF    118583707                       # Time in different power states (Tick)
system.mem_ctrl.dram.rank0.pwrStateTime::SREF            0                       # Time in different power states (Tick)
system.mem_ctrl.dram.rank0.pwrStateTime::PRE_PDN            0                       # Time in different power states (Tick)
system.mem_ctrl.dram.rank0.pwrStateTime::ACT   3172454998                       # Time in different power states (Tick)
system.mem_ctrl.dram.rank0.pwrStateTime::ACT_PDN            0                       # Time in different power states (Tick)
system.mem_ctrl.dram.rank1.actEnergy         12930540                       # Energy for activate commands per rank (pJ) (Joule)
system.mem_ctrl.dram.rank1.preEnergy          6876540                       # Energy for precharge commands per rank (pJ) (Joule)
system.mem_ctrl.dram.rank1.readEnergy        50072820                       # Energy for read commands per rank (pJ) (Joule)
system.mem_ctrl.dram.rank1.writeEnergy        1602540                       # Energy for write commands per rank (pJ) (Joule)
system.mem_ctrl.dram.rank1.refreshEnergy 280890480.000000                       # Energy for refresh commands per rank (pJ) (Joule)
system.mem_ctrl.dram.rank1.actBackEnergy   1451456550                       # Energy for active background per rank (pJ) (Joule)
system.mem_ctrl.dram.rank1.preBackEnergy    143465280                       # Energy for precharge background per rank (pJ) (Joule)
system.mem_ctrl.dram.rank1.actPowerDownEnergy            0                       # Energy for active power-down per rank (pJ) (Joule)
system.mem_ctrl.dram.rank1.prePowerDownEnergy            0                       # Energy for precharge power-down per rank (pJ) (Joule)
system.mem_ctrl.dram.rank1.selfRefreshEnergy            0                       # Energy for self refresh per rank (pJ) (Joule)
system.mem_ctrl.dram.rank1.totalEnergy     1947294750                       # Total energy per rank (pJ) (Joule)
system.mem_ctrl.dram.rank1.averagePower    547.545925                       # Core power per rank (mW) (Watt)
system.mem_ctrl.dram.rank1.totalIdleTime            0                       # Total Idle time Per DRAM Rank (Tick)
system.mem_ctrl.dram.rank1.pwrStateTime::IDLE    360174679                       # Time in different power states (Tick)
system.mem_ctrl.dram.rank1.pwrStateTime::REF    118583707                       # Time in different power states (Tick)
system.mem_ctrl.dram.rank1.pwrStateTime::SREF            0                       # Time in different power states (Tick)
system.mem_ctrl.dram.rank1.pwrStateTime::PRE_PDN            0                       # Time in different power states (Tick)
system.mem_ctrl.dram.rank1.pwrStateTime::ACT   3077646035                       # Time in different power states (Tick)
system.mem_ctrl.dram.rank1.pwrStateTime::ACT_PDN            0                       # Time in different power states (Tick)
system.mem_ctrl.power_state.pwrStateResidencyTicks::UNDEFINED   3556404421                       # Cumulative time (in ticks) in various power states (Tick)
system.membus.transDist::ReadResp               17820                       # Transaction distribution (Count)
system.membus.transDist::WritebackDirty          1548                       # Transaction distribution (Count)
system.membus.transDist::CleanEvict             16701                       # Transaction distribution (Count)
system.membus.transDist::ReadExReq                429                       # Transaction distribution (Count)
system.membus.transDist::ReadExResp               429                       # Transaction distribution (Count)
system.membus.transDist::ReadSharedReq          17819                       # Transaction distribution (Count)
system.membus.pktCount_system.cpu.l1d.mem_side_port::system.mem_ctrl.port        14889                       # Packet count per connected requestor and responder (Count)
system.membus.pktCount_system.cpu.l1d.mem_side_port::total        14889                       # Packet count per connected requestor and responder (Count)
system.membus.pktCount_system.cpu.l1i.mem_side_port::system.mem_ctrl.port        39857                       # Packet count per connected requestor and responder (Count)
system.membus.pktCount_system.cpu.l1i.mem_side_port::total        39857                       # Packet count per connected requestor and responder (Count)
system.membus.pktCount::total                   54746                       # Packet count per connected requestor and responder (Count)
system.membus.pktSize_system.cpu.l1d.mem_side_port::system.mem_ctrl.port       416704                       # Cumulative packet size per connected requestor and responder (Byte)
system.membus.pktSize_system.cpu.l1d.mem_side_port::total       416704                       # Cumulative packet size per connected requestor and responder (Byte)
system.membus.pktSize_system.cpu.l1i.mem_side_port::system.mem_ctrl.port       850304                       # Cumulative packet size per connected requestor and responder (Byte)
system.membus.pktSize_system.cpu.l1i.mem_side_port::total       850304                       # Cumulative packet size per connected requestor and responder (Byte)
system.membus.pktSize::total                  1267008                       # Cumulative packet size per connected requestor and responder (Byte)
system.membus.snoops                                0                       # Total snoops (Count)
system.membus.snoopTraffic                          0                       # Total snoop traffic (Byte)
system.membus.snoopFanout::samples              18248                       # Request fanout histogram (Count)
system.membus.snoopFanout::mean                     0                       # Request fanout histogram (Count)
system.membus.snoopFanout::stdev                    0                       # Request fanout histogram (Count)
system.membus.snoopFanout::underflows               0      0.00%      0.00% # Request fanout histogram (Count)
system.membus.snoopFanout::0                    18248    100.00%    100.00% # Request fanout histogram (Count)
system.membus.snoopFanout::1                        0      0.00%    100.00% # Request fanout histogram (Count)
system.membus.snoopFanout::2                        0      0.00%    100.00% # Request fanout histogram (Count)
system.membus.snoopFanout::overflows                0      0.00%    100.00% # Request fanout histogram (Count)
system.membus.snoopFanout::min_value                0                       # Request fanout histogram (Count)
system.membus.snoopFanout::max_value                0                       # Request fanout histogram (Count)
system.membus.snoopFanout::total                18248                       # Request fanout histogram (Count)
system.membus.power_state.pwrStateResidencyTicks::UNDEFINED   3556404421                       # Cumulative time (in ticks) in various power states (Tick)
system.membus.reqLayer2.occupancy           569172437                       # Layer occupancy (ticks) (Tick)
system.membus.reqLayer2.utilization               0.2                       # Layer utilization (Ratio)
system.membus.respLayer1.occupancy          337266620                       # Layer occupancy (ticks) (Tick)
system.membus.respLayer1.utilization              0.1                       # Layer utilization (Ratio)
system.membus.respLayer2.occupancy          896893019                       # Layer occupancy (ticks) (Tick)
system.membus.respLayer2.utilization              0.3                       # Layer utilization (Ratio)
system.membus.snoop_filter.totRequests          36497                       # Total number of requests made to the snoop filter. (Count)
system.membus.snoop_filter.hitSingleRequests        18249                       # Number of requests hitting in the snoop filter with a single holder of the requested data. (Count)
system.membus.snoop_filter.hitMultiRequests            0                       # Number of requests hitting in the snoop filter with multiple (>1) holders of the requested data. (Count)
system.membus.snoop_filter.totSnoops                0                       # Total number of snoops made to the snoop filter. (Count)
system.membus.snoop_filter.hitSingleSnoops            0                       # Number of snoops hitting in the snoop filter with a single holder of the requested data. (Count)
system.membus.snoop_filter.hitMultiSnoops            0                       # Number of snoops hitting in the snoop filter with multiple (>1) holders of the requested data. (Count)
system.workload.inst.arm                            0                       # number of arm instructions executed (Count)
system.workload.inst.quiesce                        0                       # number of quiesce instructions executed (Count)

---------- End Simulation Statistics   ----------
