
---------- Begin Simulation Statistics ----------
simSeconds                                   1.923232                       # Number of seconds simulated (Second)
simTicks                                 1923232291324                       # Number of ticks simulated (Tick)
finalTick                                1923232291324                       # Number of ticks from beginning of simulation (restored from checkpoints and never reset) (Tick)
simFreq                                  1000000000000                       # The number of ticks per simulated second ((Tick/Second))
hostSeconds                                     75.28                       # Real time elapsed on the host (Second)
hostTickRate                              25548384587                       # The number of ticks simulated per host second (ticks/s) ((Tick/Second))
hostMemory                                    8638724                       # Number of bytes of host memory used (Byte)
simInsts                                     50937658                       # Number of instructions simulated (Count)
simOps                                       93402184                       # Number of ops (including micro ops) simulated (Count)
hostInstRate                                   676659                       # Simulator instruction rate (inst/s) ((Count/Second))
hostOpRate                                    1240760                       # Simulator op (including micro ops) rate (op/s) ((Count/Second))
system.clk_domain.clock                         13333                       # Clock period in ticks (Tick)
system.clk_domain.voltage_domain.voltage            1                       # Voltage in Volts (Volt)
system.cpu.numCycles                        144246028                       # Number of cpu cycles simulated (Cycle)
system.cpu.cpi                               2.831640                       # CPI: cycles per instruction (core level) ((Cycle/Count))
system.cpu.ipc                               0.353152                       # IPC: instructions per cycle (core level) ((Count/Cycle))
system.cpu.numWorkItemsStarted                      0                       # Number of work items this cpu started (Count)
system.cpu.numWorkItemsCompleted                    0                       # Number of work items this cpu completed (Count)
system.cpu.commitStats0.numInsts             50940809                       # Number of instructions committed (thread level) (Count)
system.cpu.commitStats0.numOps               93405514                       # Number of ops (including micro ops) committed (thread level) (Count)
system.cpu.commitStats0.numInstsNotNOP              0                       # Number of instructions committed excluding NOPs or prefetches (Count)
system.cpu.commitStats0.numOpsNotNOP                0                       # Number of Ops (including micro ops) Simulated (Count)
system.cpu.commitStats0.cpi                  2.831640                       # CPI: cycles per instruction (thread level) ((Cycle/Count))
system.cpu.commitStats0.ipc                  0.353152                       # IPC: instructions per cycle (thread level) ((Count/Cycle))
system.cpu.commitStats0.numMemRefs                  0                       # Number of memory references committed (Count)
system.cpu.commitStats0.numFpInsts           10535762                       # Number of float instructions (Count)
system.cpu.commitStats0.numIntInsts          84115719                       # Number of integer instructions (Count)
system.cpu.commitStats0.numLoadInsts         10691012                       # Number of load instructions (Count)
system.cpu.commitStats0.numStoreInsts         3970093                       # Number of store instructions (Count)
system.cpu.commitStats0.numVecInsts                 0                       # Number of vector instructions (Count)
system.cpu.commitStats0.committedInstType::No_OpClass       442975      0.47%      0.47% # Class of committed instruction. (Count)
system.cpu.commitStats0.committedInstType::IntAlu     70026141     74.97%     75.44% # Class of committed instruction. (Count)
system.cpu.commitStats0.committedInstType::IntMult        50783      0.05%     75.50% # Class of committed instruction. (Count)
system.cpu.commitStats0.committedInstType::IntDiv       411064      0.44%     75.94% # Class of committed instruction. (Count)
system.cpu.commitStats0.committedInstType::FloatAdd      1705792      1.83%     77.76% # Class of committed instruction. (Count)
system.cpu.commitStats0.committedInstType::FloatCmp            0      0.00%     77.76% # Class of committed instruction. (Count)
system.cpu.commitStats0.committedInstType::FloatCvt         1632      0.00%     77.77% # Class of committed instruction. (Count)
system.cpu.commitStats0.committedInstType::FloatMult            0      0.00%     77.77% # Class of committed instruction. (Count)
system.cpu.commitStats0.committedInstType::FloatMultAcc            0      0.00%     77.77% # Class of committed instruction. (Count)
system.cpu.commitStats0.committedInstType::FloatDiv            0      0.00%     77.77% # Class of committed instruction. (Count)
system.cpu.commitStats0.committedInstType::FloatMisc            0      0.00%     77.77% # Class of committed instruction. (Count)
system.cpu.commitStats0.committedInstType::FloatSqrt            0      0.00%     77.77% # Class of committed instruction. (Count)
system.cpu.commitStats0.committedInstType::SimdAdd         6680      0.01%     77.77% # Class of committed instruction. (Count)
system.cpu.commitStats0.committedInstType::SimdAddAcc            0      0.00%     77.77% # Class of committed instruction. (Count)
system.cpu.commitStats0.committedInstType::SimdAlu       117711      0.13%     77.90% # Class of committed instruction. (Count)
system.cpu.commitStats0.committedInstType::SimdCmp           12      0.00%     77.90% # Class of committed instruction. (Count)
system.cpu.commitStats0.committedInstType::SimdCvt        34180      0.04%     77.94% # Class of committed instruction. (Count)
system.cpu.commitStats0.committedInstType::SimdMisc        57906      0.06%     78.00% # Class of committed instruction. (Count)
system.cpu.commitStats0.committedInstType::SimdMult            0      0.00%     78.00% # Class of committed instruction. (Count)
system.cpu.commitStats0.committedInstType::SimdMultAcc            0      0.00%     78.00% # Class of committed instruction. (Count)
system.cpu.commitStats0.committedInstType::SimdMatMultAcc            0      0.00%     78.00% # Class of committed instruction. (Count)
system.cpu.commitStats0.committedInstType::SimdShift         1835      0.00%     78.00% # Class of committed instruction. (Count)
system.cpu.commitStats0.committedInstType::SimdShiftAcc            0      0.00%     78.00% # Class of committed instruction. (Count)
system.cpu.commitStats0.committedInstType::SimdDiv            0      0.00%     78.00% # Class of committed instruction. (Count)
system.cpu.commitStats0.committedInstType::SimdSqrt            0      0.00%     78.00% # Class of committed instruction. (Count)
system.cpu.commitStats0.committedInstType::SimdFloatAdd      1822872      1.95%     79.95% # Class of committed instruction. (Count)
system.cpu.commitStats0.committedInstType::SimdFloatAlu            0      0.00%     79.95% # Class of committed instruction. (Count)
system.cpu.commitStats0.committedInstType::SimdFloatCmp       748800      0.80%     80.75% # Class of committed instruction. (Count)
system.cpu.commitStats0.committedInstType::SimdFloatCvt      2110834      2.26%     83.01% # Class of committed instruction. (Count)
system.cpu.commitStats0.committedInstType::SimdFloatDiv           32      0.00%     83.01% # Class of committed instruction. (Count)
system.cpu.commitStats0.committedInstType::SimdFloatMisc            0      0.00%     83.01% # Class of committed instruction. (Count)
system.cpu.commitStats0.committedInstType::SimdFloatMult      1203720      1.29%     84.30% # Class of committed instruction. (Count)
system.cpu.commitStats0.committedInstType::SimdFloatMultAcc            0      0.00%     84.30% # Class of committed instruction. (Count)
system.cpu.commitStats0.committedInstType::SimdFloatMatMultAcc            0      0.00%     84.30% # Class of committed instruction. (Count)
system.cpu.commitStats0.committedInstType::SimdFloatSqrt         1440      0.00%     84.30% # Class of committed instruction. (Count)
system.cpu.commitStats0.committedInstType::SimdReduceAdd            0      0.00%     84.30% # Class of committed instruction. (Count)
system.cpu.commitStats0.committedInstType::SimdReduceAlu            0      0.00%     84.30% # Class of committed instruction. (Count)
system.cpu.commitStats0.committedInstType::SimdReduceCmp            0      0.00%     84.30% # Class of committed instruction. (Count)
system.cpu.commitStats0.committedInstType::SimdFloatReduceAdd            0      0.00%     84.30% # Class of committed instruction. (Count)
system.cpu.commitStats0.committedInstType::SimdFloatReduceCmp            0      0.00%     84.30% # Class of committed instruction. (Count)
system.cpu.commitStats0.committedInstType::SimdAes            0      0.00%     84.30% # Class of committed instruction. (Count)
system.cpu.commitStats0.committedInstType::SimdAesMix            0      0.00%     84.30% # Class of committed instruction. (Count)
system.cpu.commitStats0.committedInstType::SimdSha1Hash            0      0.00%     84.30% # Class of committed instruction. (Count)
system.cpu.commitStats0.committedInstType::SimdSha1Hash2            0      0.00%     84.30% # Class of committed instruction. (Count)
system.cpu.commitStats0.committedInstType::SimdSha256Hash            0      0.00%     84.30% # Class of committed instruction. (Count)
system.cpu.commitStats0.committedInstType::SimdSha256Hash2            0      0.00%     84.30% # Class of committed instruction. (Count)
system.cpu.commitStats0.committedInstType::SimdShaSigma2            0      0.00%     84.30% # Class of committed instruction. (Count)
system.cpu.commitStats0.committedInstType::SimdShaSigma3            0      0.00%     84.30% # Class of committed instruction. (Count)
system.cpu.commitStats0.committedInstType::SimdPredAlu            0      0.00%     84.30% # Class of committed instruction. (Count)
system.cpu.commitStats0.committedInstType::Matrix            0      0.00%     84.30% # Class of committed instruction. (Count)
system.cpu.commitStats0.committedInstType::MatrixMov            0      0.00%     84.30% # Class of committed instruction. (Count)
system.cpu.commitStats0.committedInstType::MatrixOP            0      0.00%     84.30% # Class of committed instruction. (Count)
system.cpu.commitStats0.committedInstType::MemRead      8945256      9.58%     93.88% # Class of committed instruction. (Count)
system.cpu.commitStats0.committedInstType::MemWrite      3917099      4.19%     98.07% # Class of committed instruction. (Count)
system.cpu.commitStats0.committedInstType::FloatMemRead      1745756      1.87%     99.94% # Class of committed instruction. (Count)
system.cpu.commitStats0.committedInstType::FloatMemWrite        52994      0.06%    100.00% # Class of committed instruction. (Count)
system.cpu.commitStats0.committedInstType::IprAccess            0      0.00%    100.00% # Class of committed instruction. (Count)
system.cpu.commitStats0.committedInstType::InstPrefetch            0      0.00%    100.00% # Class of committed instruction. (Count)
system.cpu.commitStats0.committedInstType::SimdUnitStrideLoad            0      0.00%    100.00% # Class of committed instruction. (Count)
system.cpu.commitStats0.committedInstType::SimdUnitStrideStore            0      0.00%    100.00% # Class of committed instruction. (Count)
system.cpu.commitStats0.committedInstType::SimdUnitStrideMaskLoad            0      0.00%    100.00% # Class of committed instruction. (Count)
system.cpu.commitStats0.committedInstType::SimdUnitStrideMaskStore            0      0.00%    100.00% # Class of committed instruction. (Count)
system.cpu.commitStats0.committedInstType::SimdStridedLoad            0      0.00%    100.00% # Class of committed instruction. (Count)
system.cpu.commitStats0.committedInstType::SimdStridedStore            0      0.00%    100.00% # Class of committed instruction. (Count)
system.cpu.commitStats0.committedInstType::SimdIndexedLoad            0      0.00%    100.00% # Class of committed instruction. (Count)
system.cpu.commitStats0.committedInstType::SimdIndexedStore            0      0.00%    100.00% # Class of committed instruction. (Count)
system.cpu.commitStats0.committedInstType::SimdWholeRegisterLoad            0      0.00%    100.00% # Class of committed instruction. (Count)
system.cpu.commitStats0.committedInstType::SimdWholeRegisterStore            0      0.00%    100.00% # Class of committed instruction. (Count)
system.cpu.commitStats0.committedInstType::SimdUnitStrideFaultOnlyFirstLoad            0      0.00%    100.00% # Class of committed instruction. (Count)
system.cpu.commitStats0.committedInstType::SimdUnitStrideSegmentedLoad            0      0.00%    100.00% # Class of committed instruction. (Count)
system.cpu.commitStats0.committedInstType::SimdUnitStrideSegmentedStore            0      0.00%    100.00% # Class of committed instruction. (Count)
system.cpu.commitStats0.committedInstType::SimdExt            0      0.00%    100.00% # Class of committed instruction. (Count)
system.cpu.commitStats0.committedInstType::SimdFloatExt            0      0.00%    100.00% # Class of committed instruction. (Count)
system.cpu.commitStats0.committedInstType::SimdConfig            0      0.00%    100.00% # Class of committed instruction. (Count)
system.cpu.commitStats0.committedInstType::total     93405514                       # Class of committed instruction. (Count)
system.cpu.commitStats0.committedControl::IsControl      9944782                       # Class of control type instructions committed (Count)
system.cpu.commitStats0.committedControl::IsDirectControl      9547115                       # Class of control type instructions committed (Count)
system.cpu.commitStats0.committedControl::IsIndirectControl       397407                       # Class of control type instructions committed (Count)
system.cpu.commitStats0.committedControl::IsCondControl      8699682                       # Class of control type instructions committed (Count)
system.cpu.commitStats0.committedControl::IsUncondControl      1244840                       # Class of control type instructions committed (Count)
system.cpu.commitStats0.committedControl::IsCall       328956                       # Class of control type instructions committed (Count)
system.cpu.commitStats0.committedControl::IsReturn       328951                       # Class of control type instructions committed (Count)
system.cpu.exec_context.thread_0.numMatAluAccesses            0                       # Number of matrix alu accesses (Count)
system.cpu.exec_context.thread_0.numCallsReturns       657907                       # Number of times a function call or return occured (Count)
system.cpu.exec_context.thread_0.numMatInsts            0                       # Number of matrix instructions (Count)
system.cpu.exec_context.thread_0.numIdleCycles            0                       # Number of idle cycles (Cycle)
system.cpu.exec_context.thread_0.numBusyCycles    144246028                       # Number of busy cycles (Cycle)
system.cpu.exec_context.thread_0.notIdleFraction            1                       # Percentage of non-idle cycles (Ratio)
system.cpu.exec_context.thread_0.idleFraction            0                       # Percentage of idle cycles (Ratio)
system.cpu.executeStats0.numInsts                   0                       # Number of executed instructions (Count)
system.cpu.executeStats0.numNop                     0                       # Number of nop insts executed (Count)
system.cpu.executeStats0.numBranches                0                       # Number of branches executed (Count)
system.cpu.executeStats0.numLoadInsts               0                       # Number of load instructions executed (Count)
system.cpu.executeStats0.numStoreInsts       14661105                       # Number of stores executed (Count)
system.cpu.executeStats0.instRate                   0                       # Inst execution rate ((Count/Cycle))
system.cpu.executeStats0.numFpAluAccesses     10535762                       # Number of float alu accesses (Count)
system.cpu.executeStats0.numFpRegReads       17882640                       # Number of times the floating registers were read (Count)
system.cpu.executeStats0.numFpRegWrites       8346671                       # Number of times the floating registers were written (Count)
system.cpu.executeStats0.numIntAluAccesses     84115719                       # Number of integer alu accesses (Count)
system.cpu.executeStats0.numIntRegReads     107745460                       # Number of times the integer registers were read (Count)
system.cpu.executeStats0.numIntRegWrites     61771863                       # Number of times the integer registers were written (Count)
system.cpu.executeStats0.numMemRefs          14661105                       # Number of memory refs (Count)
system.cpu.executeStats0.numMiscRegReads     34142148                       # Number of times the Misc registers were read (Count)
system.cpu.executeStats0.numMiscRegWrites          918                       # Number of times the Misc registers were written (Count)
system.cpu.executeStats0.numVecAluAccesses            0                       # Number of vector alu accesses (Count)
system.cpu.executeStats0.numDiscardedOps            0                       # Number of ops (including micro ops) which were discarded before commit (Count)
system.cpu.fetchStats0.numInsts              50940809                       # Number of instructions fetched (thread level) (Count)
system.cpu.fetchStats0.numOps                93405514                       # Number of ops (including micro ops) fetched (thread level) (Count)
system.cpu.fetchStats0.fetchRate             0.353152                       # Number of inst fetches per cycle ((Count/Cycle))
system.cpu.fetchStats0.numBranches            9944782                       # Number of branches fetched (Count)
system.cpu.fetchStats0.branchRate            0.068943                       # Number of branch fetches per cycle (Ratio)
system.cpu.fetchStats0.numFetchSuspends             0                       # Number of times Execute suspended instruction fetching (Count)
system.cpu.interrupts.clk_domain.clock         213328                       # Clock period in ticks (Tick)
system.cpu.l1d.demandHits::cpu.data          14103806                       # number of demand (read+write) hits (Count)
system.cpu.l1d.demandHits::total             14103806                       # number of demand (read+write) hits (Count)
system.cpu.l1d.overallHits::cpu.data         14103806                       # number of overall hits (Count)
system.cpu.l1d.overallHits::total            14103806                       # number of overall hits (Count)
system.cpu.l1d.demandMisses::cpu.data          524346                       # number of demand (read+write) misses (Count)
system.cpu.l1d.demandMisses::total             524346                       # number of demand (read+write) misses (Count)
system.cpu.l1d.overallMisses::cpu.data         524346                       # number of overall misses (Count)
system.cpu.l1d.overallMisses::total            524346                       # number of overall misses (Count)
system.cpu.l1d.demandMissLatency::cpu.data 105119385283                       # number of demand (read+write) miss ticks (Tick)
system.cpu.l1d.demandMissLatency::total  105119385283                       # number of demand (read+write) miss ticks (Tick)
system.cpu.l1d.overallMissLatency::cpu.data 105119385283                       # number of overall miss ticks (Tick)
system.cpu.l1d.overallMissLatency::total 105119385283                       # number of overall miss ticks (Tick)
system.cpu.l1d.demandAccesses::cpu.data      14628152                       # number of demand (read+write) accesses (Count)
system.cpu.l1d.demandAccesses::total         14628152                       # number of demand (read+write) accesses (Count)
system.cpu.l1d.overallAccesses::cpu.data     14628152                       # number of overall (read+write) accesses (Count)
system.cpu.l1d.overallAccesses::total        14628152                       # number of overall (read+write) accesses (Count)
system.cpu.l1d.demandMissRate::cpu.data      0.035845                       # miss rate for demand accesses (Ratio)
system.cpu.l1d.demandMissRate::total         0.035845                       # miss rate for demand accesses (Ratio)
system.cpu.l1d.overallMissRate::cpu.data     0.035845                       # miss rate for overall accesses (Ratio)
system.cpu.l1d.overallMissRate::total        0.035845                       # miss rate for overall accesses (Ratio)
system.cpu.l1d.demandAvgMissLatency::cpu.data 200477.137774                       # average overall miss latency in ticks ((Tick/Count))
system.cpu.l1d.demandAvgMissLatency::total 200477.137774                       # average overall miss latency in ticks ((Tick/Count))
system.cpu.l1d.overallAvgMissLatency::cpu.data 200477.137774                       # average overall miss latency ((Tick/Count))
system.cpu.l1d.overallAvgMissLatency::total 200477.137774                       # average overall miss latency ((Tick/Count))
system.cpu.l1d.blockedCycles::no_mshrs              0                       # number of cycles access was blocked (Cycle)
system.cpu.l1d.blockedCycles::no_targets            0                       # number of cycles access was blocked (Cycle)
system.cpu.l1d.blockedCauses::no_mshrs              0                       # number of times access was blocked (Count)
system.cpu.l1d.blockedCauses::no_targets            0                       # number of times access was blocked (Count)
system.cpu.l1d.avgBlocked::no_mshrs               nan                       # average number of cycles each access was blocked ((Cycle/Count))
system.cpu.l1d.avgBlocked::no_targets             nan                       # average number of cycles each access was blocked ((Cycle/Count))
system.cpu.l1d.writebacks::writebacks          235936                       # number of writebacks (Count)
system.cpu.l1d.writebacks::total               235936                       # number of writebacks (Count)
system.cpu.l1d.demandMshrHits::cpu.data         24173                       # number of demand (read+write) MSHR hits (Count)
system.cpu.l1d.demandMshrHits::total            24173                       # number of demand (read+write) MSHR hits (Count)
system.cpu.l1d.overallMshrHits::cpu.data        24173                       # number of overall MSHR hits (Count)
system.cpu.l1d.overallMshrHits::total           24173                       # number of overall MSHR hits (Count)
system.cpu.l1d.demandMshrMisses::cpu.data       500173                       # number of demand (read+write) MSHR misses (Count)
system.cpu.l1d.demandMshrMisses::total         500173                       # number of demand (read+write) MSHR misses (Count)
system.cpu.l1d.overallMshrMisses::cpu.data       500173                       # number of overall MSHR misses (Count)
system.cpu.l1d.overallMshrMisses::cpu.l1d.prefetcher       698811                       # number of overall MSHR misses (Count)
system.cpu.l1d.overallMshrMisses::total       1198984                       # number of overall MSHR misses (Count)
system.cpu.l1d.demandMshrMissLatency::cpu.data  96436895684                       # number of demand (read+write) MSHR miss ticks (Tick)
system.cpu.l1d.demandMshrMissLatency::total  96436895684                       # number of demand (read+write) MSHR miss ticks (Tick)
system.cpu.l1d.overallMshrMissLatency::cpu.data  96436895684                       # number of overall MSHR miss ticks (Tick)
system.cpu.l1d.overallMshrMissLatency::cpu.l1d.prefetcher 153370581995                       # number of overall MSHR miss ticks (Tick)
system.cpu.l1d.overallMshrMissLatency::total 249807477679                       # number of overall MSHR miss ticks (Tick)
system.cpu.l1d.demandMshrMissRate::cpu.data     0.034192                       # mshr miss ratio for demand accesses (Ratio)
system.cpu.l1d.demandMshrMissRate::total     0.034192                       # mshr miss ratio for demand accesses (Ratio)
system.cpu.l1d.overallMshrMissRate::cpu.data     0.034192                       # mshr miss ratio for overall accesses (Ratio)
system.cpu.l1d.overallMshrMissRate::cpu.l1d.prefetcher          inf                       # mshr miss ratio for overall accesses (Ratio)
system.cpu.l1d.overallMshrMissRate::total     0.081964                       # mshr miss ratio for overall accesses (Ratio)
system.cpu.l1d.demandAvgMshrMissLatency::cpu.data 192807.080118                       # average overall mshr miss latency ((Tick/Count))
system.cpu.l1d.demandAvgMshrMissLatency::total 192807.080118                       # average overall mshr miss latency ((Tick/Count))
system.cpu.l1d.overallAvgMshrMissLatency::cpu.data 192807.080118                       # average overall mshr miss latency ((Tick/Count))
system.cpu.l1d.overallAvgMshrMissLatency::cpu.l1d.prefetcher 219473.623047                       # average overall mshr miss latency ((Tick/Count))
system.cpu.l1d.overallAvgMshrMissLatency::total 208349.300474                       # average overall mshr miss latency ((Tick/Count))
system.cpu.l1d.replacements                   1198974                       # number of replacements (Count)
system.cpu.l1d.HardPFReq.mshrMisses::cpu.l1d.prefetcher       698811                       # number of HardPFReq MSHR misses (Count)
system.cpu.l1d.HardPFReq.mshrMisses::total       698811                       # number of HardPFReq MSHR misses (Count)
system.cpu.l1d.HardPFReq.mshrMissLatency::cpu.l1d.prefetcher 153370581995                       # number of HardPFReq MSHR miss ticks (Tick)
system.cpu.l1d.HardPFReq.mshrMissLatency::total 153370581995                       # number of HardPFReq MSHR miss ticks (Tick)
system.cpu.l1d.HardPFReq.mshrMissRate::cpu.l1d.prefetcher          inf                       # mshr miss rate for HardPFReq accesses (Ratio)
system.cpu.l1d.HardPFReq.mshrMissRate::total          inf                       # mshr miss rate for HardPFReq accesses (Ratio)
system.cpu.l1d.HardPFReq.avgMshrMissLatency::cpu.l1d.prefetcher 219473.623047                       # average HardPFReq mshr miss latency ((Tick/Count))
system.cpu.l1d.HardPFReq.avgMshrMissLatency::total 219473.623047                       # average HardPFReq mshr miss latency ((Tick/Count))
system.cpu.l1d.LockedRMWReadReq.hits::cpu.data        15972                       # number of LockedRMWReadReq hits (Count)
system.cpu.l1d.LockedRMWReadReq.hits::total        15972                       # number of LockedRMWReadReq hits (Count)
system.cpu.l1d.LockedRMWReadReq.misses::cpu.data           54                       # number of LockedRMWReadReq misses (Count)
system.cpu.l1d.LockedRMWReadReq.misses::total           54                       # number of LockedRMWReadReq misses (Count)
system.cpu.l1d.LockedRMWReadReq.missLatency::cpu.data     11039724                       # number of LockedRMWReadReq miss ticks (Tick)
system.cpu.l1d.LockedRMWReadReq.missLatency::total     11039724                       # number of LockedRMWReadReq miss ticks (Tick)
system.cpu.l1d.LockedRMWReadReq.accesses::cpu.data        16026                       # number of LockedRMWReadReq accesses(hits+misses) (Count)
system.cpu.l1d.LockedRMWReadReq.accesses::total        16026                       # number of LockedRMWReadReq accesses(hits+misses) (Count)
system.cpu.l1d.LockedRMWReadReq.missRate::cpu.data     0.003370                       # miss rate for LockedRMWReadReq accesses (Ratio)
system.cpu.l1d.LockedRMWReadReq.missRate::total     0.003370                       # miss rate for LockedRMWReadReq accesses (Ratio)
system.cpu.l1d.LockedRMWReadReq.avgMissLatency::cpu.data 204439.333333                       # average LockedRMWReadReq miss latency ((Tick/Count))
system.cpu.l1d.LockedRMWReadReq.avgMissLatency::total 204439.333333                       # average LockedRMWReadReq miss latency ((Tick/Count))
system.cpu.l1d.LockedRMWReadReq.mshrMisses::cpu.data           54                       # number of LockedRMWReadReq MSHR misses (Count)
system.cpu.l1d.LockedRMWReadReq.mshrMisses::total           54                       # number of LockedRMWReadReq MSHR misses (Count)
system.cpu.l1d.LockedRMWReadReq.mshrMissLatency::cpu.data    234367474                       # number of LockedRMWReadReq MSHR miss ticks (Tick)
system.cpu.l1d.LockedRMWReadReq.mshrMissLatency::total    234367474                       # number of LockedRMWReadReq MSHR miss ticks (Tick)
system.cpu.l1d.LockedRMWReadReq.mshrMissRate::cpu.data     0.003370                       # mshr miss rate for LockedRMWReadReq accesses (Ratio)
system.cpu.l1d.LockedRMWReadReq.mshrMissRate::total     0.003370                       # mshr miss rate for LockedRMWReadReq accesses (Ratio)
system.cpu.l1d.LockedRMWReadReq.avgMshrMissLatency::cpu.data 4340138.407407                       # average LockedRMWReadReq mshr miss latency ((Tick/Count))
system.cpu.l1d.LockedRMWReadReq.avgMshrMissLatency::total 4340138.407407                       # average LockedRMWReadReq mshr miss latency ((Tick/Count))
system.cpu.l1d.LockedRMWWriteReq.hits::cpu.data        16026                       # number of LockedRMWWriteReq hits (Count)
system.cpu.l1d.LockedRMWWriteReq.hits::total        16026                       # number of LockedRMWWriteReq hits (Count)
system.cpu.l1d.LockedRMWWriteReq.accesses::cpu.data        16026                       # number of LockedRMWWriteReq accesses(hits+misses) (Count)
system.cpu.l1d.LockedRMWWriteReq.accesses::total        16026                       # number of LockedRMWWriteReq accesses(hits+misses) (Count)
system.cpu.l1d.ReadReq.hits::cpu.data        10288378                       # number of ReadReq hits (Count)
system.cpu.l1d.ReadReq.hits::total           10288378                       # number of ReadReq hits (Count)
system.cpu.l1d.ReadReq.misses::cpu.data        386484                       # number of ReadReq misses (Count)
system.cpu.l1d.ReadReq.misses::total           386484                       # number of ReadReq misses (Count)
system.cpu.l1d.ReadReq.missLatency::cpu.data  79746232961                       # number of ReadReq miss ticks (Tick)
system.cpu.l1d.ReadReq.missLatency::total  79746232961                       # number of ReadReq miss ticks (Tick)
system.cpu.l1d.ReadReq.accesses::cpu.data     10674862                       # number of ReadReq accesses(hits+misses) (Count)
system.cpu.l1d.ReadReq.accesses::total       10674862                       # number of ReadReq accesses(hits+misses) (Count)
system.cpu.l1d.ReadReq.missRate::cpu.data     0.036205                       # miss rate for ReadReq accesses (Ratio)
system.cpu.l1d.ReadReq.missRate::total       0.036205                       # miss rate for ReadReq accesses (Ratio)
system.cpu.l1d.ReadReq.avgMissLatency::cpu.data 206337.734450                       # average ReadReq miss latency ((Tick/Count))
system.cpu.l1d.ReadReq.avgMissLatency::total 206337.734450                       # average ReadReq miss latency ((Tick/Count))
system.cpu.l1d.ReadReq.mshrHits::cpu.data        19868                       # number of ReadReq MSHR hits (Count)
system.cpu.l1d.ReadReq.mshrHits::total          19868                       # number of ReadReq MSHR hits (Count)
system.cpu.l1d.ReadReq.mshrMisses::cpu.data       366616                       # number of ReadReq MSHR misses (Count)
system.cpu.l1d.ReadReq.mshrMisses::total       366616                       # number of ReadReq MSHR misses (Count)
system.cpu.l1d.ReadReq.mshrMissLatency::cpu.data  73254728586                       # number of ReadReq MSHR miss ticks (Tick)
system.cpu.l1d.ReadReq.mshrMissLatency::total  73254728586                       # number of ReadReq MSHR miss ticks (Tick)
system.cpu.l1d.ReadReq.mshrMissRate::cpu.data     0.034344                       # mshr miss rate for ReadReq accesses (Ratio)
system.cpu.l1d.ReadReq.mshrMissRate::total     0.034344                       # mshr miss rate for ReadReq accesses (Ratio)
system.cpu.l1d.ReadReq.avgMshrMissLatency::cpu.data 199813.233972                       # average ReadReq mshr miss latency ((Tick/Count))
system.cpu.l1d.ReadReq.avgMshrMissLatency::total 199813.233972                       # average ReadReq mshr miss latency ((Tick/Count))
system.cpu.l1d.WriteReq.hits::cpu.data        3815428                       # number of WriteReq hits (Count)
system.cpu.l1d.WriteReq.hits::total           3815428                       # number of WriteReq hits (Count)
system.cpu.l1d.WriteReq.misses::cpu.data       137862                       # number of WriteReq misses (Count)
system.cpu.l1d.WriteReq.misses::total          137862                       # number of WriteReq misses (Count)
system.cpu.l1d.WriteReq.missLatency::cpu.data  25373152322                       # number of WriteReq miss ticks (Tick)
system.cpu.l1d.WriteReq.missLatency::total  25373152322                       # number of WriteReq miss ticks (Tick)
system.cpu.l1d.WriteReq.accesses::cpu.data      3953290                       # number of WriteReq accesses(hits+misses) (Count)
system.cpu.l1d.WriteReq.accesses::total       3953290                       # number of WriteReq accesses(hits+misses) (Count)
system.cpu.l1d.WriteReq.missRate::cpu.data     0.034873                       # miss rate for WriteReq accesses (Ratio)
system.cpu.l1d.WriteReq.missRate::total      0.034873                       # miss rate for WriteReq accesses (Ratio)
system.cpu.l1d.WriteReq.avgMissLatency::cpu.data 184047.470093                       # average WriteReq miss latency ((Tick/Count))
system.cpu.l1d.WriteReq.avgMissLatency::total 184047.470093                       # average WriteReq miss latency ((Tick/Count))
system.cpu.l1d.WriteReq.mshrHits::cpu.data         4305                       # number of WriteReq MSHR hits (Count)
system.cpu.l1d.WriteReq.mshrHits::total          4305                       # number of WriteReq MSHR hits (Count)
system.cpu.l1d.WriteReq.mshrMisses::cpu.data       133557                       # number of WriteReq MSHR misses (Count)
system.cpu.l1d.WriteReq.mshrMisses::total       133557                       # number of WriteReq MSHR misses (Count)
system.cpu.l1d.WriteReq.mshrMissLatency::cpu.data  23182167098                       # number of WriteReq MSHR miss ticks (Tick)
system.cpu.l1d.WriteReq.mshrMissLatency::total  23182167098                       # number of WriteReq MSHR miss ticks (Tick)
system.cpu.l1d.WriteReq.mshrMissRate::cpu.data     0.033784                       # mshr miss rate for WriteReq accesses (Ratio)
system.cpu.l1d.WriteReq.mshrMissRate::total     0.033784                       # mshr miss rate for WriteReq accesses (Ratio)
system.cpu.l1d.WriteReq.avgMshrMissLatency::cpu.data 173575.081037                       # average WriteReq mshr miss latency ((Tick/Count))
system.cpu.l1d.WriteReq.avgMshrMissLatency::total 173575.081037                       # average WriteReq mshr miss latency ((Tick/Count))
system.cpu.l1d.power_state.pwrStateResidencyTicks::UNDEFINED 1923232291324                       # Cumulative time (in ticks) in various power states (Tick)
system.cpu.l1d.prefetcher.demandMshrMisses       500173                       # demands not covered by prefetchs (Count)
system.cpu.l1d.prefetcher.pfIssued             823211                       # number of hwpf issued (Count)
system.cpu.l1d.prefetcher.pfUnused             369629                       # number of HardPF blocks evicted w/o reference (Count)
system.cpu.l1d.prefetcher.pfUseful             304991                       # number of useful prefetch (Count)
system.cpu.l1d.prefetcher.pfUsefulButMiss            0                       # number of hit on prefetch but cache block is not in an usable state (Count)
system.cpu.l1d.prefetcher.accuracy           0.370489                       # accuracy of the prefetcher (Count)
system.cpu.l1d.prefetcher.coverage           0.378794                       # coverage brought by this prefetcher (Count)
system.cpu.l1d.prefetcher.pfHitInCache         124061                       # number of prefetches hitting in cache (Count)
system.cpu.l1d.prefetcher.pfHitInMSHR               0                       # number of prefetches hitting in a MSHR (Count)
system.cpu.l1d.prefetcher.pfHitInWB               339                       # number of prefetches hit in the Write Buffer (Count)
system.cpu.l1d.prefetcher.pfLate               124400                       # number of late prefetches (hitting in cache, MSHR or WB) (Count)
system.cpu.l1d.prefetcher.pfIdentified         823248                       # number of prefetch candidates identified (Count)
system.cpu.l1d.prefetcher.pfBufferHit               0                       # number of redundant prefetches already in prefetch queue (Count)
system.cpu.l1d.prefetcher.pfInCache                 0                       # number of redundant prefetches already in cache/mshr dropped (Count)
system.cpu.l1d.prefetcher.pfRemovedDemand           37                       # number of prefetches dropped due to a demand for the same address (Count)
system.cpu.l1d.prefetcher.pfRemovedFull             0                       # number of prefetches dropped due to prefetch queue size (Count)
system.cpu.l1d.prefetcher.pfSpanPage             6143                       # number of prefetches that crossed the page (Count)
system.cpu.l1d.prefetcher.pfUsefulSpanPage         3793                       # number of prefetches that is useful and crossed the page (Count)
system.cpu.l1d.prefetcher.power_state.pwrStateResidencyTicks::UNDEFINED 1923232291324                       # Cumulative time (in ticks) in various power states (Tick)
system.cpu.l1d.tags.tagsInUse               63.999449                       # Average ticks per tags in use ((Tick/Count))
system.cpu.l1d.tags.totalRefs                15331891                       # Total number of references to valid blocks. (Count)
system.cpu.l1d.tags.sampledRefs               1198974                       # Sample count of references to valid blocks. (Count)
system.cpu.l1d.tags.avgRefs                 12.787509                       # Average number of references to valid blocks. ((Count/Count))
system.cpu.l1d.tags.warmupTick                 479988                       # The tick when the warmup percentage was hit. (Tick)
system.cpu.l1d.tags.occupancies::cpu.data    25.821172                       # Average occupied blocks per tick, per requestor ((Count/Tick))
system.cpu.l1d.tags.occupancies::cpu.l1d.prefetcher    38.178277                       # Average occupied blocks per tick, per requestor ((Count/Tick))
system.cpu.l1d.tags.avgOccs::cpu.data        0.403456                       # Average percentage of cache occupancy ((Ratio/Tick))
system.cpu.l1d.tags.avgOccs::cpu.l1d.prefetcher     0.596536                       # Average percentage of cache occupancy ((Ratio/Tick))
system.cpu.l1d.tags.avgOccs::total           0.999991                       # Average percentage of cache occupancy ((Ratio/Tick))
system.cpu.l1d.tags.occupanciesTaskId::1022           32                       # Occupied blocks per task id (Count)
system.cpu.l1d.tags.occupanciesTaskId::1024           32                       # Occupied blocks per task id (Count)
system.cpu.l1d.tags.ageTaskId_1022::0               2                       # Occupied blocks per task id, per block age (Count)
system.cpu.l1d.tags.ageTaskId_1022::1              20                       # Occupied blocks per task id, per block age (Count)
system.cpu.l1d.tags.ageTaskId_1022::2               5                       # Occupied blocks per task id, per block age (Count)
system.cpu.l1d.tags.ageTaskId_1022::3               5                       # Occupied blocks per task id, per block age (Count)
system.cpu.l1d.tags.ageTaskId_1024::0               2                       # Occupied blocks per task id, per block age (Count)
system.cpu.l1d.tags.ageTaskId_1024::1              18                       # Occupied blocks per task id, per block age (Count)
system.cpu.l1d.tags.ageTaskId_1024::2               7                       # Occupied blocks per task id, per block age (Count)
system.cpu.l1d.tags.ageTaskId_1024::3               5                       # Occupied blocks per task id, per block age (Count)
system.cpu.l1d.tags.ratioOccsTaskId::1022     0.500000                       # Ratio of occupied blocks and all blocks, per task id (Ratio)
system.cpu.l1d.tags.ratioOccsTaskId::1024     0.500000                       # Ratio of occupied blocks and all blocks, per task id (Ratio)
system.cpu.l1d.tags.tagAccesses              30519446                       # Number of tag accesses (Count)
system.cpu.l1d.tags.dataAccesses             30519446                       # Number of data accesses (Count)
system.cpu.l1d.tags.power_state.pwrStateResidencyTicks::UNDEFINED 1923232291324                       # Cumulative time (in ticks) in various power states (Tick)
system.cpu.l1i.demandHits::cpu.inst          63344614                       # number of demand (read+write) hits (Count)
system.cpu.l1i.demandHits::total             63344614                       # number of demand (read+write) hits (Count)
system.cpu.l1i.overallHits::cpu.inst         63344614                       # number of overall hits (Count)
system.cpu.l1i.overallHits::total            63344614                       # number of overall hits (Count)
system.cpu.l1i.demandMisses::cpu.inst         3117244                       # number of demand (read+write) misses (Count)
system.cpu.l1i.demandMisses::total            3117244                       # number of demand (read+write) misses (Count)
system.cpu.l1i.overallMisses::cpu.inst        3117244                       # number of overall misses (Count)
system.cpu.l1i.overallMisses::total           3117244                       # number of overall misses (Count)
system.cpu.l1i.demandMissLatency::cpu.inst 647806804425                       # number of demand (read+write) miss ticks (Tick)
system.cpu.l1i.demandMissLatency::total  647806804425                       # number of demand (read+write) miss ticks (Tick)
system.cpu.l1i.overallMissLatency::cpu.inst 647806804425                       # number of overall miss ticks (Tick)
system.cpu.l1i.overallMissLatency::total 647806804425                       # number of overall miss ticks (Tick)
system.cpu.l1i.demandAccesses::cpu.inst      66461858                       # number of demand (read+write) accesses (Count)
system.cpu.l1i.demandAccesses::total         66461858                       # number of demand (read+write) accesses (Count)
system.cpu.l1i.overallAccesses::cpu.inst     66461858                       # number of overall (read+write) accesses (Count)
system.cpu.l1i.overallAccesses::total        66461858                       # number of overall (read+write) accesses (Count)
system.cpu.l1i.demandMissRate::cpu.inst      0.046903                       # miss rate for demand accesses (Ratio)
system.cpu.l1i.demandMissRate::total         0.046903                       # miss rate for demand accesses (Ratio)
system.cpu.l1i.overallMissRate::cpu.inst     0.046903                       # miss rate for overall accesses (Ratio)
system.cpu.l1i.overallMissRate::total        0.046903                       # miss rate for overall accesses (Ratio)
system.cpu.l1i.demandAvgMissLatency::cpu.inst 207813.955027                       # average overall miss latency in ticks ((Tick/Count))
system.cpu.l1i.demandAvgMissLatency::total 207813.955027                       # average overall miss latency in ticks ((Tick/Count))
system.cpu.l1i.overallAvgMissLatency::cpu.inst 207813.955027                       # average overall miss latency ((Tick/Count))
system.cpu.l1i.overallAvgMissLatency::total 207813.955027                       # average overall miss latency ((Tick/Count))
system.cpu.l1i.blockedCycles::no_mshrs              0                       # number of cycles access was blocked (Cycle)
system.cpu.l1i.blockedCycles::no_targets            0                       # number of cycles access was blocked (Cycle)
system.cpu.l1i.blockedCauses::no_mshrs              0                       # number of times access was blocked (Count)
system.cpu.l1i.blockedCauses::no_targets            0                       # number of times access was blocked (Count)
system.cpu.l1i.avgBlocked::no_mshrs               nan                       # average number of cycles each access was blocked ((Cycle/Count))
system.cpu.l1i.avgBlocked::no_targets             nan                       # average number of cycles each access was blocked ((Cycle/Count))
system.cpu.l1i.demandMshrMisses::cpu.inst      3117244                       # number of demand (read+write) MSHR misses (Count)
system.cpu.l1i.demandMshrMisses::total        3117244                       # number of demand (read+write) MSHR misses (Count)
system.cpu.l1i.overallMshrMisses::cpu.inst      3117244                       # number of overall MSHR misses (Count)
system.cpu.l1i.overallMshrMisses::total       3117244                       # number of overall MSHR misses (Count)
system.cpu.l1i.demandMshrMissLatency::cpu.inst 606244590173                       # number of demand (read+write) MSHR miss ticks (Tick)
system.cpu.l1i.demandMshrMissLatency::total 606244590173                       # number of demand (read+write) MSHR miss ticks (Tick)
system.cpu.l1i.overallMshrMissLatency::cpu.inst 606244590173                       # number of overall MSHR miss ticks (Tick)
system.cpu.l1i.overallMshrMissLatency::total 606244590173                       # number of overall MSHR miss ticks (Tick)
system.cpu.l1i.demandMshrMissRate::cpu.inst     0.046903                       # mshr miss ratio for demand accesses (Ratio)
system.cpu.l1i.demandMshrMissRate::total     0.046903                       # mshr miss ratio for demand accesses (Ratio)
system.cpu.l1i.overallMshrMissRate::cpu.inst     0.046903                       # mshr miss ratio for overall accesses (Ratio)
system.cpu.l1i.overallMshrMissRate::total     0.046903                       # mshr miss ratio for overall accesses (Ratio)
system.cpu.l1i.demandAvgMshrMissLatency::cpu.inst 194480.955027                       # average overall mshr miss latency ((Tick/Count))
system.cpu.l1i.demandAvgMshrMissLatency::total 194480.955027                       # average overall mshr miss latency ((Tick/Count))
system.cpu.l1i.overallAvgMshrMissLatency::cpu.inst 194480.955027                       # average overall mshr miss latency ((Tick/Count))
system.cpu.l1i.overallAvgMshrMissLatency::total 194480.955027                       # average overall mshr miss latency ((Tick/Count))
system.cpu.l1i.replacements                   3117242                       # number of replacements (Count)
system.cpu.l1i.ReadReq.hits::cpu.inst        63344614                       # number of ReadReq hits (Count)
system.cpu.l1i.ReadReq.hits::total           63344614                       # number of ReadReq hits (Count)
system.cpu.l1i.ReadReq.misses::cpu.inst       3117244                       # number of ReadReq misses (Count)
system.cpu.l1i.ReadReq.misses::total          3117244                       # number of ReadReq misses (Count)
system.cpu.l1i.ReadReq.missLatency::cpu.inst 647806804425                       # number of ReadReq miss ticks (Tick)
system.cpu.l1i.ReadReq.missLatency::total 647806804425                       # number of ReadReq miss ticks (Tick)
system.cpu.l1i.ReadReq.accesses::cpu.inst     66461858                       # number of ReadReq accesses(hits+misses) (Count)
system.cpu.l1i.ReadReq.accesses::total       66461858                       # number of ReadReq accesses(hits+misses) (Count)
system.cpu.l1i.ReadReq.missRate::cpu.inst     0.046903                       # miss rate for ReadReq accesses (Ratio)
system.cpu.l1i.ReadReq.missRate::total       0.046903                       # miss rate for ReadReq accesses (Ratio)
system.cpu.l1i.ReadReq.avgMissLatency::cpu.inst 207813.955027                       # average ReadReq miss latency ((Tick/Count))
system.cpu.l1i.ReadReq.avgMissLatency::total 207813.955027                       # average ReadReq miss latency ((Tick/Count))
system.cpu.l1i.ReadReq.mshrMisses::cpu.inst      3117244                       # number of ReadReq MSHR misses (Count)
system.cpu.l1i.ReadReq.mshrMisses::total      3117244                       # number of ReadReq MSHR misses (Count)
system.cpu.l1i.ReadReq.mshrMissLatency::cpu.inst 606244590173                       # number of ReadReq MSHR miss ticks (Tick)
system.cpu.l1i.ReadReq.mshrMissLatency::total 606244590173                       # number of ReadReq MSHR miss ticks (Tick)
system.cpu.l1i.ReadReq.mshrMissRate::cpu.inst     0.046903                       # mshr miss rate for ReadReq accesses (Ratio)
system.cpu.l1i.ReadReq.mshrMissRate::total     0.046903                       # mshr miss rate for ReadReq accesses (Ratio)
system.cpu.l1i.ReadReq.avgMshrMissLatency::cpu.inst 194480.955027                       # average ReadReq mshr miss latency ((Tick/Count))
system.cpu.l1i.ReadReq.avgMshrMissLatency::total 194480.955027                       # average ReadReq mshr miss latency ((Tick/Count))
system.cpu.l1i.power_state.pwrStateResidencyTicks::UNDEFINED 1923232291324                       # Cumulative time (in ticks) in various power states (Tick)
system.cpu.l1i.tags.tagsInUse                2.000000                       # Average ticks per tags in use ((Tick/Count))
system.cpu.l1i.tags.totalRefs                66461852                       # Total number of references to valid blocks. (Count)
system.cpu.l1i.tags.sampledRefs               3117242                       # Sample count of references to valid blocks. (Count)
system.cpu.l1i.tags.avgRefs                 21.320723                       # Average number of references to valid blocks. ((Count/Count))
system.cpu.l1i.tags.warmupTick                 199995                       # The tick when the warmup percentage was hit. (Tick)
system.cpu.l1i.tags.occupancies::cpu.inst     2.000000                       # Average occupied blocks per tick, per requestor ((Count/Tick))
system.cpu.l1i.tags.avgOccs::cpu.inst        1.000000                       # Average percentage of cache occupancy ((Ratio/Tick))
system.cpu.l1i.tags.avgOccs::total           1.000000                       # Average percentage of cache occupancy ((Ratio/Tick))
system.cpu.l1i.tags.occupanciesTaskId::1024            2                       # Occupied blocks per task id (Count)
system.cpu.l1i.tags.ageTaskId_1024::0               2                       # Occupied blocks per task id, per block age (Count)
system.cpu.l1i.tags.ratioOccsTaskId::1024            1                       # Ratio of occupied blocks and all blocks, per task id (Ratio)
system.cpu.l1i.tags.tagAccesses             136040960                       # Number of tag accesses (Count)
system.cpu.l1i.tags.dataAccesses            136040960                       # Number of data accesses (Count)
system.cpu.l1i.tags.power_state.pwrStateResidencyTicks::UNDEFINED 1923232291324                       # Cumulative time (in ticks) in various power states (Tick)
system.cpu.mmu.dtb.rdAccesses                10691140                       # TLB accesses on read requests (Count)
system.cpu.mmu.dtb.wrAccesses                 3970140                       # TLB accesses on write requests (Count)
system.cpu.mmu.dtb.rdMisses                      2545                       # TLB misses on read requests (Count)
system.cpu.mmu.dtb.wrMisses                      1740                       # TLB misses on write requests (Count)
system.cpu.mmu.dtb.walker.power_state.pwrStateResidencyTicks::UNDEFINED 1923232291324                       # Cumulative time (in ticks) in various power states (Tick)
system.cpu.mmu.itb.rdAccesses                       0                       # TLB accesses on read requests (Count)
system.cpu.mmu.itb.wrAccesses                66461998                       # TLB accesses on write requests (Count)
system.cpu.mmu.itb.rdMisses                         0                       # TLB misses on read requests (Count)
system.cpu.mmu.itb.wrMisses                       541                       # TLB misses on write requests (Count)
system.cpu.mmu.itb.walker.power_state.pwrStateResidencyTicks::UNDEFINED 1923232291324                       # Cumulative time (in ticks) in various power states (Tick)
system.cpu.power_state.pwrStateResidencyTicks::ON 1923232291324                       # Cumulative time (in ticks) in various power states (Tick)
system.cpu.thread_0.numInsts                        0                       # Number of Instructions committed (Count)
system.cpu.thread_0.numOps                          0                       # Number of Ops committed (Count)
system.cpu.thread_0.numMemRefs                      0                       # Number of Memory References (Count)
system.cpu.workload.numSyscalls                  2255                       # Number of system calls (Count)
system.mem_ctrl.avgPriority_writebacks::samples    115792.00                       # Average QoS priority value for accepted requests (Count)
system.mem_ctrl.avgPriority_cpu.inst::samples   3117244.00                       # Average QoS priority value for accepted requests (Count)
system.mem_ctrl.avgPriority_cpu.data::samples    365414.00                       # Average QoS priority value for accepted requests (Count)
system.mem_ctrl.avgPriority_cpu.l1d.prefetcher::samples    669497.00                       # Average QoS priority value for accepted requests (Count)
system.mem_ctrl.priorityMinLatency       0.000000018750                       # per QoS priority minimum request to response latency (Second)
system.mem_ctrl.priorityMaxLatency       0.025773609395                       # per QoS priority maximum request to response latency (Second)
system.mem_ctrl.numReadWriteTurnArounds          6467                       # Number of turnarounds from READ to WRITE (Count)
system.mem_ctrl.numWriteReadTurnArounds          6467                       # Number of turnarounds from WRITE to READ (Count)
system.mem_ctrl.numStayReadState              9032134                       # Number of times bus staying in READ state (Count)
system.mem_ctrl.numStayWriteState              109507                       # Number of times bus staying in WRITE state (Count)
system.mem_ctrl.readReqs                      4316282                       # Number of read requests accepted (Count)
system.mem_ctrl.writeReqs                      235936                       # Number of write requests accepted (Count)
system.mem_ctrl.readBursts                    4316282                       # Number of controller read bursts, including those serviced by the write queue (Count)
system.mem_ctrl.writeBursts                    235936                       # Number of controller write bursts, including those merged in the write queue (Count)
system.mem_ctrl.servicedByWrQ                  164127                       # Number of controller read bursts serviced by the write queue (Count)
system.mem_ctrl.mergedWrBursts                 120144                       # Number of controller write bursts merged with an existing one (Count)
system.mem_ctrl.neitherReadNorWriteReqs             0                       # Number of requests that are neither read nor write (Count)
system.mem_ctrl.avgRdQLen                        1.06                       # Average read queue length when enqueuing ((Count/Tick))
system.mem_ctrl.avgWrQLen                       24.84                       # Average write queue length when enqueuing ((Count/Tick))
system.mem_ctrl.numRdRetry                          0                       # Number of times read queue was full causing retry (Count)
system.mem_ctrl.numWrRetry                          0                       # Number of times write queue was full causing retry (Count)
system.mem_ctrl.readPktSize::0                      0                       # Read request sizes (log2) (Count)
system.mem_ctrl.readPktSize::1                      0                       # Read request sizes (log2) (Count)
system.mem_ctrl.readPktSize::2                      0                       # Read request sizes (log2) (Count)
system.mem_ctrl.readPktSize::3                      0                       # Read request sizes (log2) (Count)
system.mem_ctrl.readPktSize::4                      0                       # Read request sizes (log2) (Count)
system.mem_ctrl.readPktSize::5                      0                       # Read request sizes (log2) (Count)
system.mem_ctrl.readPktSize::6                4316282                       # Read request sizes (log2) (Count)
system.mem_ctrl.writePktSize::0                     0                       # Write request sizes (log2) (Count)
system.mem_ctrl.writePktSize::1                     0                       # Write request sizes (log2) (Count)
system.mem_ctrl.writePktSize::2                     0                       # Write request sizes (log2) (Count)
system.mem_ctrl.writePktSize::3                     0                       # Write request sizes (log2) (Count)
system.mem_ctrl.writePktSize::4                     0                       # Write request sizes (log2) (Count)
system.mem_ctrl.writePktSize::5                     0                       # Write request sizes (log2) (Count)
system.mem_ctrl.writePktSize::6                235936                       # Write request sizes (log2) (Count)
system.mem_ctrl.rdQLenPdf::0                  3850942                       # What read queue length does an incoming req see (Count)
system.mem_ctrl.rdQLenPdf::1                   301055                       # What read queue length does an incoming req see (Count)
system.mem_ctrl.rdQLenPdf::2                      157                       # What read queue length does an incoming req see (Count)
system.mem_ctrl.rdQLenPdf::3                        1                       # What read queue length does an incoming req see (Count)
system.mem_ctrl.rdQLenPdf::4                        0                       # What read queue length does an incoming req see (Count)
system.mem_ctrl.rdQLenPdf::5                        0                       # What read queue length does an incoming req see (Count)
system.mem_ctrl.rdQLenPdf::6                        0                       # What read queue length does an incoming req see (Count)
system.mem_ctrl.rdQLenPdf::7                        0                       # What read queue length does an incoming req see (Count)
system.mem_ctrl.rdQLenPdf::8                        0                       # What read queue length does an incoming req see (Count)
system.mem_ctrl.rdQLenPdf::9                        0                       # What read queue length does an incoming req see (Count)
system.mem_ctrl.rdQLenPdf::10                       0                       # What read queue length does an incoming req see (Count)
system.mem_ctrl.rdQLenPdf::11                       0                       # What read queue length does an incoming req see (Count)
system.mem_ctrl.rdQLenPdf::12                       0                       # What read queue length does an incoming req see (Count)
system.mem_ctrl.rdQLenPdf::13                       0                       # What read queue length does an incoming req see (Count)
system.mem_ctrl.rdQLenPdf::14                       0                       # What read queue length does an incoming req see (Count)
system.mem_ctrl.rdQLenPdf::15                       0                       # What read queue length does an incoming req see (Count)
system.mem_ctrl.rdQLenPdf::16                       0                       # What read queue length does an incoming req see (Count)
system.mem_ctrl.rdQLenPdf::17                       0                       # What read queue length does an incoming req see (Count)
system.mem_ctrl.rdQLenPdf::18                       0                       # What read queue length does an incoming req see (Count)
system.mem_ctrl.rdQLenPdf::19                       0                       # What read queue length does an incoming req see (Count)
system.mem_ctrl.rdQLenPdf::20                       0                       # What read queue length does an incoming req see (Count)
system.mem_ctrl.rdQLenPdf::21                       0                       # What read queue length does an incoming req see (Count)
system.mem_ctrl.rdQLenPdf::22                       0                       # What read queue length does an incoming req see (Count)
system.mem_ctrl.rdQLenPdf::23                       0                       # What read queue length does an incoming req see (Count)
system.mem_ctrl.rdQLenPdf::24                       0                       # What read queue length does an incoming req see (Count)
system.mem_ctrl.rdQLenPdf::25                       0                       # What read queue length does an incoming req see (Count)
system.mem_ctrl.rdQLenPdf::26                       0                       # What read queue length does an incoming req see (Count)
system.mem_ctrl.rdQLenPdf::27                       0                       # What read queue length does an incoming req see (Count)
system.mem_ctrl.rdQLenPdf::28                       0                       # What read queue length does an incoming req see (Count)
system.mem_ctrl.rdQLenPdf::29                       0                       # What read queue length does an incoming req see (Count)
system.mem_ctrl.rdQLenPdf::30                       0                       # What read queue length does an incoming req see (Count)
system.mem_ctrl.rdQLenPdf::31                       0                       # What read queue length does an incoming req see (Count)
system.mem_ctrl.wrQLenPdf::0                        1                       # What write queue length does an incoming req see (Count)
system.mem_ctrl.wrQLenPdf::1                        1                       # What write queue length does an incoming req see (Count)
system.mem_ctrl.wrQLenPdf::2                        1                       # What write queue length does an incoming req see (Count)
system.mem_ctrl.wrQLenPdf::3                        1                       # What write queue length does an incoming req see (Count)
system.mem_ctrl.wrQLenPdf::4                        1                       # What write queue length does an incoming req see (Count)
system.mem_ctrl.wrQLenPdf::5                        1                       # What write queue length does an incoming req see (Count)
system.mem_ctrl.wrQLenPdf::6                        1                       # What write queue length does an incoming req see (Count)
system.mem_ctrl.wrQLenPdf::7                        1                       # What write queue length does an incoming req see (Count)
system.mem_ctrl.wrQLenPdf::8                        1                       # What write queue length does an incoming req see (Count)
system.mem_ctrl.wrQLenPdf::9                        1                       # What write queue length does an incoming req see (Count)
system.mem_ctrl.wrQLenPdf::10                       1                       # What write queue length does an incoming req see (Count)
system.mem_ctrl.wrQLenPdf::11                       1                       # What write queue length does an incoming req see (Count)
system.mem_ctrl.wrQLenPdf::12                       1                       # What write queue length does an incoming req see (Count)
system.mem_ctrl.wrQLenPdf::13                       1                       # What write queue length does an incoming req see (Count)
system.mem_ctrl.wrQLenPdf::14                       1                       # What write queue length does an incoming req see (Count)
system.mem_ctrl.wrQLenPdf::15                    5922                       # What write queue length does an incoming req see (Count)
system.mem_ctrl.wrQLenPdf::16                    6243                       # What write queue length does an incoming req see (Count)
system.mem_ctrl.wrQLenPdf::17                    6528                       # What write queue length does an incoming req see (Count)
system.mem_ctrl.wrQLenPdf::18                    6482                       # What write queue length does an incoming req see (Count)
system.mem_ctrl.wrQLenPdf::19                    6483                       # What write queue length does an incoming req see (Count)
system.mem_ctrl.wrQLenPdf::20                    6470                       # What write queue length does an incoming req see (Count)
system.mem_ctrl.wrQLenPdf::21                    6476                       # What write queue length does an incoming req see (Count)
system.mem_ctrl.wrQLenPdf::22                    6480                       # What write queue length does an incoming req see (Count)
system.mem_ctrl.wrQLenPdf::23                    6471                       # What write queue length does an incoming req see (Count)
system.mem_ctrl.wrQLenPdf::24                    6468                       # What write queue length does an incoming req see (Count)
system.mem_ctrl.wrQLenPdf::25                    6472                       # What write queue length does an incoming req see (Count)
system.mem_ctrl.wrQLenPdf::26                    6467                       # What write queue length does an incoming req see (Count)
system.mem_ctrl.wrQLenPdf::27                    6470                       # What write queue length does an incoming req see (Count)
system.mem_ctrl.wrQLenPdf::28                    6467                       # What write queue length does an incoming req see (Count)
system.mem_ctrl.wrQLenPdf::29                    6467                       # What write queue length does an incoming req see (Count)
system.mem_ctrl.wrQLenPdf::30                    6467                       # What write queue length does an incoming req see (Count)
system.mem_ctrl.wrQLenPdf::31                    6467                       # What write queue length does an incoming req see (Count)
system.mem_ctrl.wrQLenPdf::32                    6467                       # What write queue length does an incoming req see (Count)
system.mem_ctrl.wrQLenPdf::33                      10                       # What write queue length does an incoming req see (Count)
system.mem_ctrl.wrQLenPdf::34                       0                       # What write queue length does an incoming req see (Count)
system.mem_ctrl.wrQLenPdf::35                       0                       # What write queue length does an incoming req see (Count)
system.mem_ctrl.wrQLenPdf::36                       0                       # What write queue length does an incoming req see (Count)
system.mem_ctrl.wrQLenPdf::37                       0                       # What write queue length does an incoming req see (Count)
system.mem_ctrl.wrQLenPdf::38                       0                       # What write queue length does an incoming req see (Count)
system.mem_ctrl.wrQLenPdf::39                       0                       # What write queue length does an incoming req see (Count)
system.mem_ctrl.wrQLenPdf::40                       0                       # What write queue length does an incoming req see (Count)
system.mem_ctrl.wrQLenPdf::41                       0                       # What write queue length does an incoming req see (Count)
system.mem_ctrl.wrQLenPdf::42                       0                       # What write queue length does an incoming req see (Count)
system.mem_ctrl.wrQLenPdf::43                       0                       # What write queue length does an incoming req see (Count)
system.mem_ctrl.wrQLenPdf::44                       0                       # What write queue length does an incoming req see (Count)
system.mem_ctrl.wrQLenPdf::45                       0                       # What write queue length does an incoming req see (Count)
system.mem_ctrl.wrQLenPdf::46                       0                       # What write queue length does an incoming req see (Count)
system.mem_ctrl.wrQLenPdf::47                       0                       # What write queue length does an incoming req see (Count)
system.mem_ctrl.wrQLenPdf::48                       0                       # What write queue length does an incoming req see (Count)
system.mem_ctrl.wrQLenPdf::49                       0                       # What write queue length does an incoming req see (Count)
system.mem_ctrl.wrQLenPdf::50                       0                       # What write queue length does an incoming req see (Count)
system.mem_ctrl.wrQLenPdf::51                       0                       # What write queue length does an incoming req see (Count)
system.mem_ctrl.wrQLenPdf::52                       0                       # What write queue length does an incoming req see (Count)
system.mem_ctrl.wrQLenPdf::53                       0                       # What write queue length does an incoming req see (Count)
system.mem_ctrl.wrQLenPdf::54                       0                       # What write queue length does an incoming req see (Count)
system.mem_ctrl.wrQLenPdf::55                       0                       # What write queue length does an incoming req see (Count)
system.mem_ctrl.wrQLenPdf::56                       0                       # What write queue length does an incoming req see (Count)
system.mem_ctrl.wrQLenPdf::57                       0                       # What write queue length does an incoming req see (Count)
system.mem_ctrl.wrQLenPdf::58                       0                       # What write queue length does an incoming req see (Count)
system.mem_ctrl.wrQLenPdf::59                       0                       # What write queue length does an incoming req see (Count)
system.mem_ctrl.wrQLenPdf::60                       0                       # What write queue length does an incoming req see (Count)
system.mem_ctrl.wrQLenPdf::61                       0                       # What write queue length does an incoming req see (Count)
system.mem_ctrl.wrQLenPdf::62                       0                       # What write queue length does an incoming req see (Count)
system.mem_ctrl.wrQLenPdf::63                       0                       # What write queue length does an incoming req see (Count)
system.mem_ctrl.rdPerTurnAround::samples         6467                       # Reads before turning the bus around for writes (Count)
system.mem_ctrl.rdPerTurnAround::mean      642.042524                       # Reads before turning the bus around for writes (Count)
system.mem_ctrl.rdPerTurnAround::gmean     193.265242                       # Reads before turning the bus around for writes (Count)
system.mem_ctrl.rdPerTurnAround::stdev    1335.156304                       # Reads before turning the bus around for writes (Count)
system.mem_ctrl.rdPerTurnAround::0-511           4612     71.32%     71.32% # Reads before turning the bus around for writes (Count)
system.mem_ctrl.rdPerTurnAround::512-1023          747     11.55%     82.87% # Reads before turning the bus around for writes (Count)
system.mem_ctrl.rdPerTurnAround::1024-1535          324      5.01%     87.88% # Reads before turning the bus around for writes (Count)
system.mem_ctrl.rdPerTurnAround::1536-2047          368      5.69%     93.57% # Reads before turning the bus around for writes (Count)
system.mem_ctrl.rdPerTurnAround::2048-2559          184      2.85%     96.41% # Reads before turning the bus around for writes (Count)
system.mem_ctrl.rdPerTurnAround::2560-3071           34      0.53%     96.94% # Reads before turning the bus around for writes (Count)
system.mem_ctrl.rdPerTurnAround::3072-3583           26      0.40%     97.34% # Reads before turning the bus around for writes (Count)
system.mem_ctrl.rdPerTurnAround::3584-4095            9      0.14%     97.48% # Reads before turning the bus around for writes (Count)
system.mem_ctrl.rdPerTurnAround::4096-4607           12      0.19%     97.67% # Reads before turning the bus around for writes (Count)
system.mem_ctrl.rdPerTurnAround::4608-5119           10      0.15%     97.82% # Reads before turning the bus around for writes (Count)
system.mem_ctrl.rdPerTurnAround::5120-5631            6      0.09%     97.91% # Reads before turning the bus around for writes (Count)
system.mem_ctrl.rdPerTurnAround::5632-6143           19      0.29%     98.21% # Reads before turning the bus around for writes (Count)
system.mem_ctrl.rdPerTurnAround::6144-6655           11      0.17%     98.38% # Reads before turning the bus around for writes (Count)
system.mem_ctrl.rdPerTurnAround::6656-7167           18      0.28%     98.65% # Reads before turning the bus around for writes (Count)
system.mem_ctrl.rdPerTurnAround::7168-7679           18      0.28%     98.93% # Reads before turning the bus around for writes (Count)
system.mem_ctrl.rdPerTurnAround::7680-8191           13      0.20%     99.13% # Reads before turning the bus around for writes (Count)
system.mem_ctrl.rdPerTurnAround::8192-8703            9      0.14%     99.27% # Reads before turning the bus around for writes (Count)
system.mem_ctrl.rdPerTurnAround::8704-9215           12      0.19%     99.46% # Reads before turning the bus around for writes (Count)
system.mem_ctrl.rdPerTurnAround::9216-9727            6      0.09%     99.55% # Reads before turning the bus around for writes (Count)
system.mem_ctrl.rdPerTurnAround::9728-10239            9      0.14%     99.69% # Reads before turning the bus around for writes (Count)
system.mem_ctrl.rdPerTurnAround::10240-10751            5      0.08%     99.77% # Reads before turning the bus around for writes (Count)
system.mem_ctrl.rdPerTurnAround::10752-11263            5      0.08%     99.85% # Reads before turning the bus around for writes (Count)
system.mem_ctrl.rdPerTurnAround::11264-11775            2      0.03%     99.88% # Reads before turning the bus around for writes (Count)
system.mem_ctrl.rdPerTurnAround::11776-12287            1      0.02%     99.89% # Reads before turning the bus around for writes (Count)
system.mem_ctrl.rdPerTurnAround::12288-12799            2      0.03%     99.92% # Reads before turning the bus around for writes (Count)
system.mem_ctrl.rdPerTurnAround::12800-13311            2      0.03%     99.95% # Reads before turning the bus around for writes (Count)
system.mem_ctrl.rdPerTurnAround::13824-14335            2      0.03%     99.98% # Reads before turning the bus around for writes (Count)
system.mem_ctrl.rdPerTurnAround::14336-14847            1      0.02%    100.00% # Reads before turning the bus around for writes (Count)
system.mem_ctrl.rdPerTurnAround::total           6467                       # Reads before turning the bus around for writes (Count)
system.mem_ctrl.wrPerTurnAround::samples         6467                       # Writes before turning the bus around for reads (Count)
system.mem_ctrl.wrPerTurnAround::mean       17.901345                       # Writes before turning the bus around for reads (Count)
system.mem_ctrl.wrPerTurnAround::gmean      17.893583                       # Writes before turning the bus around for reads (Count)
system.mem_ctrl.wrPerTurnAround::stdev       0.514416                       # Writes before turning the bus around for reads (Count)
system.mem_ctrl.wrPerTurnAround::16               331      5.12%      5.12% # Writes before turning the bus around for reads (Count)
system.mem_ctrl.wrPerTurnAround::17               212      3.28%      8.40% # Writes before turning the bus around for reads (Count)
system.mem_ctrl.wrPerTurnAround::18              5689     87.97%     96.37% # Writes before turning the bus around for reads (Count)
system.mem_ctrl.wrPerTurnAround::19               234      3.62%     99.98% # Writes before turning the bus around for reads (Count)
system.mem_ctrl.wrPerTurnAround::20                 1      0.02%    100.00% # Writes before turning the bus around for reads (Count)
system.mem_ctrl.wrPerTurnAround::total           6467                       # Writes before turning the bus around for reads (Count)
system.mem_ctrl.bytesReadWrQ                 10504128                       # Total number of bytes read from write queue (Byte)
system.mem_ctrl.bytesReadSys                276242048                       # Total read bytes from the system interface side (Byte)
system.mem_ctrl.bytesWrittenSys              15099904                       # Total written bytes from the system interface side (Byte)
system.mem_ctrl.avgRdBWSys               143634260.53429469                       # Average system read bandwidth in Byte/s ((Byte/Second))
system.mem_ctrl.avgWrBWSys               7851315.76051318                       # Average system write bandwidth in Byte/s ((Byte/Second))
system.mem_ctrl.totGap                   1923232064663                       # Total gap between requests (Tick)
system.mem_ctrl.avgGap                      422482.42                       # Average gap between requests ((Tick/Count))
system.mem_ctrl.requestorReadBytes::cpu.inst    199503616                       # Per-requestor bytes read from memory (Byte)
system.mem_ctrl.requestorReadBytes::cpu.data     23386496                       # Per-requestor bytes read from memory (Byte)
system.mem_ctrl.requestorReadBytes::cpu.l1d.prefetcher     42847808                       # Per-requestor bytes read from memory (Byte)
system.mem_ctrl.requestorWriteBytes::writebacks      7409152                       # Per-requestor bytes write to memory (Byte)
system.mem_ctrl.requestorReadRate::cpu.inst 103733499.536167234182                       # Per-requestor bytes read from memory rate ((Byte/Second))
system.mem_ctrl.requestorReadRate::cpu.data 12159995.495863977820                       # Per-requestor bytes read from memory rate ((Byte/Second))
system.mem_ctrl.requestorReadRate::cpu.l1d.prefetcher 22279060.201564379036                       # Per-requestor bytes read from memory rate ((Byte/Second))
system.mem_ctrl.requestorWriteRate::writebacks 3852447.795008349698                       # Per-requestor bytes write to memory rate ((Byte/Second))
system.mem_ctrl.requestorReadAccesses::cpu.inst      3117244                       # Per-requestor read serviced memory accesses (Count)
system.mem_ctrl.requestorReadAccesses::cpu.data       500227                       # Per-requestor read serviced memory accesses (Count)
system.mem_ctrl.requestorReadAccesses::cpu.l1d.prefetcher       698811                       # Per-requestor read serviced memory accesses (Count)
system.mem_ctrl.requestorWriteAccesses::writebacks       235936                       # Per-requestor write serviced memory accesses (Count)
system.mem_ctrl.requestorReadTotalLat::cpu.inst  81517108780                       # Per-requestor read total memory access latency (Tick)
system.mem_ctrl.requestorReadTotalLat::cpu.data  12861436720                       # Per-requestor read total memory access latency (Tick)
system.mem_ctrl.requestorReadTotalLat::cpu.l1d.prefetcher  20300744598                       # Per-requestor read total memory access latency (Tick)
[...]
system.mem_ctrl.dram.bwRead::total          210191282                       # Total read bandwidth from this memory ((Byte/Second))
system.mem_ctrl.dram.bwInstRead::cpu.inst    115290191                       # Instruction read bandwidth from this memory ((Byte/Second))
system.mem_ctrl.dram.bwInstRead::total      115290191                       # Instruction read bandwidth from this memory ((Byte/Second))
system.mem_ctrl.dram.bwWrite::writebacks     18702411                       # Write bandwidth from this memory ((Byte/Second))
system.mem_ctrl.dram.bwWrite::total          18702411                       # Write bandwidth from this memory ((Byte/Second))
system.mem_ctrl.dram.bwTotal::writebacks     18702411                       # Total bandwidth to/from this memory ((Byte/Second))
system.mem_ctrl.dram.bwTotal::cpu.inst      115290191                       # Total bandwidth to/from this memory ((Byte/Second))
system.mem_ctrl.dram.bwTotal::cpu.data       49459690                       # Total bandwidth to/from this memory ((Byte/Second))
system.mem_ctrl.dram.bwTotal::cpu.l1d.prefetcher     45441401                       # Total bandwidth to/from this memory ((Byte/Second))
system.mem_ctrl.dram.bwTotal::total         228893693                       # Total bandwidth to/from this memory ((Byte/Second))
system.mem_ctrl.dram.readBursts                  7986                       # Number of DRAM read bursts (Count)
system.mem_ctrl.dram.writeBursts                  515                       # Number of DRAM write bursts (Count)
system.mem_ctrl.dram.perBankRdBursts::0           133                       # Per bank write bursts (Count)
system.mem_ctrl.dram.perBankRdBursts::1           402                       # Per bank write bursts (Count)
system.mem_ctrl.dram.perBankRdBursts::2           440                       # Per bank write bursts (Count)
system.mem_ctrl.dram.perBankRdBursts::3          2145                       # Per bank write bursts (Count)
system.mem_ctrl.dram.perBankRdBursts::4           374                       # Per bank write bursts (Count)
system.mem_ctrl.dram.perBankRdBursts::5           465                       # Per bank write bursts (Count)
system.mem_ctrl.dram.perBankRdBursts::6           792                       # Per bank write bursts (Count)
system.mem_ctrl.dram.perBankRdBursts::7           518                       # Per bank write bursts (Count)
system.mem_ctrl.dram.perBankRdBursts::8           476                       # Per bank write bursts (Count)
system.mem_ctrl.dram.perBankRdBursts::9           239                       # Per bank write bursts (Count)
system.mem_ctrl.dram.perBankRdBursts::10          388                       # Per bank write bursts (Count)
system.mem_ctrl.dram.perBankRdBursts::11          484                       # Per bank write bursts (Count)
system.mem_ctrl.dram.perBankRdBursts::12          576                       # Per bank write bursts (Count)
system.mem_ctrl.dram.perBankRdBursts::13           84                       # Per bank write bursts (Count)
system.mem_ctrl.dram.perBankRdBursts::14          222                       # Per bank write bursts (Count)
system.mem_ctrl.dram.perBankRdBursts::15          248                       # Per bank write bursts (Count)
system.mem_ctrl.dram.perBankWrBursts::0             1                       # Per bank write bursts (Count)
system.mem_ctrl.dram.perBankWrBursts::1            24                       # Per bank write bursts (Count)
system.mem_ctrl.dram.perBankWrBursts::2             1                       # Per bank write bursts (Count)
system.mem_ctrl.dram.perBankWrBursts::3            30                       # Per bank write bursts (Count)
system.mem_ctrl.dram.perBankWrBursts::4             1                       # Per bank write bursts (Count)
system.mem_ctrl.dram.perBankWrBursts::5             0                       # Per bank write bursts (Count)
system.mem_ctrl.dram.perBankWrBursts::6            14                       # Per bank write bursts (Count)
system.mem_ctrl.dram.perBankWrBursts::7            37                       # Per bank write bursts (Count)
system.mem_ctrl.dram.perBankWrBursts::8            69                       # Per bank write bursts (Count)
system.mem_ctrl.dram.perBankWrBursts::9            23                       # Per bank write bursts (Count)
system.mem_ctrl.dram.perBankWrBursts::10           18                       # Per bank write bursts (Count)
system.mem_ctrl.dram.perBankWrBursts::11          245                       # Per bank write bursts (Count)
system.mem_ctrl.dram.perBankWrBursts::12           37                       # Per bank write bursts (Count)
system.mem_ctrl.dram.perBankWrBursts::13            0                       # Per bank write bursts (Count)
system.mem_ctrl.dram.perBankWrBursts::14            3                       # Per bank write bursts (Count)
system.mem_ctrl.dram.perBankWrBursts::15           12                       # Per bank write bursts (Count)
system.mem_ctrl.dram.totQLat                 93036039                       # Total ticks spent queuing (Tick)
system.mem_ctrl.dram.totBusLat               39930000                       # Total ticks spent in databus transfers (Tick)
system.mem_ctrl.dram.totMemAccLat           242773539                       # Total ticks spent from burst creation until serviced by the DRAM (Tick)
system.mem_ctrl.dram.avgQLat                 11649.89                       # Average queueing delay per DRAM burst ((Tick/Count))
system.mem_ctrl.dram.avgBusLat                5000.00                       # Average bus latency per DRAM burst ((Tick/Count))
system.mem_ctrl.dram.avgMemAccLat            30399.89                       # Average memory access latency per DRAM burst ((Tick/Count))
system.mem_ctrl.dram.readRowHits                 5277                       # Number of row buffer hits during reads (Count)
system.mem_ctrl.dram.writeRowHits                 398                       # Number of row buffer hits during writes (Count)
system.mem_ctrl.dram.readRowHitRate             66.08                       # Row buffer hit rate for reads (Ratio)
system.mem_ctrl.dram.writeRowHitRate            77.28                       # Row buffer hit rate for writes (Ratio)
system.mem_ctrl.dram.bytesPerActivate::samples         2822                       # Bytes accessed per row activation (Byte)
system.mem_ctrl.dram.bytesPerActivate::mean   192.635011                       # Bytes accessed per row activation (Byte)
system.mem_ctrl.dram.bytesPerActivate::gmean   146.274865                       # Bytes accessed per row activation (Byte)
system.mem_ctrl.dram.bytesPerActivate::stdev   175.404634                       # Bytes accessed per row activation (Byte)
system.mem_ctrl.dram.bytesPerActivate::0-127          757     26.82%     26.82% # Bytes accessed per row activation (Byte)
system.mem_ctrl.dram.bytesPerActivate::128-255         1355     48.02%     74.84% # Bytes accessed per row activation (Byte)
system.mem_ctrl.dram.bytesPerActivate::256-383          377     13.36%     88.20% # Bytes accessed per row activation (Byte)
system.mem_ctrl.dram.bytesPerActivate::384-511          121      4.29%     92.49% # Bytes accessed per row activation (Byte)
system.mem_ctrl.dram.bytesPerActivate::512-639           70      2.48%     94.97% # Bytes accessed per row activation (Byte)
system.mem_ctrl.dram.bytesPerActivate::640-767           73      2.59%     97.55% # Bytes accessed per row activation (Byte)
system.mem_ctrl.dram.bytesPerActivate::768-895           30      1.06%     98.62% # Bytes accessed per row activation (Byte)
system.mem_ctrl.dram.bytesPerActivate::896-1023           22      0.78%     99.40% # Bytes accessed per row activation (Byte)
system.mem_ctrl.dram.bytesPerActivate::1024-1151           17      0.60%    100.00% # Bytes accessed per row activation (Byte)
system.mem_ctrl.dram.bytesPerActivate::total         2822                       # Bytes accessed per row activation (Byte)
system.mem_ctrl.dram.dramBytesRead             511104                       # Total bytes read (Byte)
system.mem_ctrl.dram.dramBytesWritten           32960                       # Total bytes written (Byte)
system.mem_ctrl.dram.avgRdBW               198.086804                       # Average DRAM read bandwidth in MiBytes/s ((Byte/Second))
system.mem_ctrl.dram.avgWrBW                12.774193                       # Average DRAM write bandwidth in MiBytes/s ((Byte/Second))
system.mem_ctrl.dram.peakBW                  12800.00                       # Theoretical peak bandwidth in MiByte/s ((Byte/Second))
system.mem_ctrl.dram.busUtil                     1.65                       # Data bus utilization in percentage (Ratio)
system.mem_ctrl.dram.busUtilRead                 1.55                       # Data bus utilization in percentage for reads (Ratio)
system.mem_ctrl.dram.busUtilWrite                0.10                       # Data bus utilization in percentage for writes (Ratio)
system.mem_ctrl.dram.pageHitRate                66.76                       # Row buffer hit rate, read and write combined (Ratio)
system.mem_ctrl.dram.power_state.pwrStateResidencyTicks::UNDEFINED   2580202160                       # Cumulative time (in ticks) in various power states (Tick)
system.mem_ctrl.dram.rank0.actEnergy         11338320                       # Energy for activate commands per rank (pJ) (Joule)
system.mem_ctrl.dram.rank0.preEnergy          6022665                       # Energy for precharge commands per rank (pJ) (Joule)
system.mem_ctrl.dram.rank0.readEnergy        37620660                       # Energy for read commands per rank (pJ) (Joule)
system.mem_ctrl.dram.rank0.writeEnergy         563760                       # Energy for write commands per rank (pJ) (Joule)
system.mem_ctrl.dram.rank0.refreshEnergy 203445840.000000                       # Energy for refresh commands per rank (pJ) (Joule)
system.mem_ctrl.dram.rank0.actBackEnergy   1115479740                       # Energy for active background per rank (pJ) (Joule)
system.mem_ctrl.dram.rank0.preBackEnergy     51446400                       # Energy for precharge background per rank (pJ) (Joule)
system.mem_ctrl.dram.rank0.actPowerDownEnergy            0                       # Energy for active power-down per rank (pJ) (Joule)
system.mem_ctrl.dram.rank0.prePowerDownEnergy            0                       # Energy for precharge power-down per rank (pJ) (Joule)
system.mem_ctrl.dram.rank0.selfRefreshEnergy            0                       # Energy for self refresh per rank (pJ) (Joule)
system.mem_ctrl.dram.rank0.totalEnergy     1425917385                       # Total energy per rank (pJ) (Joule)
system.mem_ctrl.dram.rank0.averagePower    552.637854                       # Core power per rank (mW) (Watt)
system.mem_ctrl.dram.rank0.totalIdleTime            0                       # Total Idle time Per DRAM Rank (Tick)
system.mem_ctrl.dram.rank0.pwrStateTime::IDLE    124369855                       # Time in different power states (Tick)
system.mem_ctrl.dram.rank0.pwrStateTime::REF     86060000                       # Time in different power states (Tick)
system.mem_ctrl.dram.rank0.pwrStateTime::SREF            0                       # Time in different power states (Tick)
system.mem_ctrl.dram.rank0.pwrStateTime::PRE_PDN            0                       # Time in different power states (Tick)
system.mem_ctrl.dram.rank0.pwrStateTime::ACT   2369772305                       # Time in different power states (Tick)
system.mem_ctrl.dram.rank0.pwrStateTime::ACT_PDN            0                       # Time in different power states (Tick)
system.mem_ctrl.dram.rank1.actEnergy          8839320                       # Energy for activate commands per rank (pJ) (Joule)
system.mem_ctrl.dram.rank1.preEnergy          4686825                       # Energy for precharge commands per rank (pJ) (Joule)
system.mem_ctrl.dram.rank1.readEnergy        19399380                       # Energy for read commands per rank (pJ) (Joule)
system.mem_ctrl.dram.rank1.writeEnergy        2124540                       # Energy for write commands per rank (pJ) (Joule)
system.mem_ctrl.dram.rank1.refreshEnergy 203445840.000000                       # Energy for refresh commands per rank (pJ) (Joule)
system.mem_ctrl.dram.rank1.actBackEnergy    872725290                       # Energy for active background per rank (pJ) (Joule)
system.mem_ctrl.dram.rank1.preBackEnergy    255871200                       # Energy for precharge background per rank (pJ) (Joule)
system.mem_ctrl.dram.rank1.actPowerDownEnergy            0                       # Energy for active power-down per rank (pJ) (Joule)
system.mem_ctrl.dram.rank1.prePowerDownEnergy            0                       # Energy for precharge power-down per rank (pJ) (Joule)
system.mem_ctrl.dram.rank1.selfRefreshEnergy            0                       # Energy for self refresh per rank (pJ) (Joule)
system.mem_ctrl.dram.rank1.totalEnergy     1367092395                       # Total energy per rank (pJ) (Joule)
system.mem_ctrl.dram.rank1.averagePower    529.839257                       # Core power per rank (mW) (Watt)
system.mem_ctrl.dram.rank1.totalIdleTime            0                       # Total Idle time Per DRAM Rank (Tick)
system.mem_ctrl.dram.rank1.pwrStateTime::IDLE    657066960                       # Time in different power states (Tick)
system.mem_ctrl.dram.rank1.pwrStateTime::REF     86060000                       # Time in different power states (Tick)
system.mem_ctrl.dram.rank1.pwrStateTime::SREF            0                       # Time in different power states (Tick)
system.mem_ctrl.dram.rank1.pwrStateTime::PRE_PDN            0                       # Time in different power states (Tick)
system.mem_ctrl.dram.rank1.pwrStateTime::ACT   1837075200                       # Time in different power states (Tick)
system.mem_ctrl.dram.rank1.pwrStateTime::ACT_PDN            0                       # Time in different power states (Tick)
system.mem_ctrl.power_state.pwrStateResidencyTicks::UNDEFINED   2580202160                       # Cumulative time (in ticks) in various power states (Tick)
system.membus.transDist::ReadResp                8205                       # Transaction distribution (Count)
system.membus.transDist::WritebackDirty           754                       # Transaction distribution (Count)
system.membus.transDist::CleanEvict              7720                       # Transaction distribution (Count)
system.membus.transDist::ReadExReq                269                       # Transaction distribution (Count)
system.membus.transDist::ReadExResp               269                       # Transaction distribution (Count)
system.membus.transDist::ReadSharedReq           8205                       # Transaction distribution (Count)
system.membus.pktCount_system.cpu.l1d.mem_side_port::system.mem_ctrl.port        11478                       # Packet count per connected requestor and responder (Count)
system.membus.pktCount_system.cpu.l1d.mem_side_port::total        11478                       # Packet count per connected requestor and responder (Count)
system.membus.pktCount_system.cpu.l1i.mem_side_port::system.mem_ctrl.port        13944                       # Packet count per connected requestor and responder (Count)
system.membus.pktCount_system.cpu.l1i.mem_side_port::total        13944                       # Packet count per connected requestor and responder (Count)
system.membus.pktCount::total                   25422                       # Packet count per connected requestor and responder (Count)
system.membus.pktSize_system.cpu.l1d.mem_side_port::system.mem_ctrl.port       293120                       # Cumulative packet size per connected requestor and responder (Byte)
system.membus.pktSize_system.cpu.l1d.mem_side_port::total       293120                       # Cumulative packet size per connected requestor and responder (Byte)
system.membus.pktSize_system.cpu.l1i.mem_side_port::system.mem_ctrl.port       297472                       # Cumulative packet size per connected requestor and responder (Byte)
system.membus.pktSize_system.cpu.l1i.mem_side_port::total       297472                       # Cumulative packet size per connected requestor and responder (Byte)
system.membus.pktSize::total                   590592                       # Cumulative packet size per connected requestor and responder (Byte)
system.membus.snoops                                0                       # Total snoops (Count)
system.membus.snoopTraffic                          0                       # Total snoop traffic (Byte)
system.membus.snoopFanout::samples               8474                       # Request fanout histogram (Count)
system.membus.snoopFanout::mean                     0                       # Request fanout histogram (Count)
system.membus.snoopFanout::stdev                    0                       # Request fanout histogram (Count)
system.membus.snoopFanout::underflows               0      0.00%      0.00% # Request fanout histogram (Count)
system.membus.snoopFanout::0                     8474    100.00%    100.00% # Request fanout histogram (Count)
system.membus.snoopFanout::1                        0      0.00%    100.00% # Request fanout histogram (Count)
system.membus.snoopFanout::2                        0      0.00%    100.00% # Request fanout histogram (Count)
system.membus.snoopFanout::overflows                0      0.00%    100.00% # Request fanout histogram (Count)
system.membus.snoopFanout::min_value                0                       # Request fanout histogram (Count)
system.membus.snoopFanout::max_value                0                       # Request fanout histogram (Count)
system.membus.snoopFanout::total                 8474                       # Request fanout histogram (Count)
system.membus.power_state.pwrStateResidencyTicks::UNDEFINED   2580202160                       # Cumulative time (in ticks) in various power states (Tick)
system.membus.reqLayer2.occupancy           266180012                       # Layer occupancy (ticks) (Tick)
system.membus.reqLayer2.utilization               0.1                       # Layer utilization (Ratio)
system.membus.respLayer1.occupancy          258660524                       # Layer occupancy (ticks) (Tick)
system.membus.respLayer1.utilization              0.1                       # Layer utilization (Ratio)
system.membus.respLayer2.occupancy          315994483                       # Layer occupancy (ticks) (Tick)
system.membus.respLayer2.utilization              0.1                       # Layer utilization (Ratio)
system.membus.snoop_filter.totRequests          16948                       # Total number of requests made to the snoop filter. (Count)
system.membus.snoop_filter.hitSingleRequests         8474                       # Number of requests hitting in the snoop filter with a single holder of the requested data. (Count)
system.membus.snoop_filter.hitMultiRequests            0                       # Number of requests hitting in the snoop filter with multiple (>1) holders of the requested data. (Count)
system.membus.snoop_filter.totSnoops                0                       # Total number of snoops made to the snoop filter. (Count)
system.membus.snoop_filter.hitSingleSnoops            0                       # Number of snoops hitting in the snoop filter with a single holder of the requested data. (Count)
system.membus.snoop_filter.hitMultiSnoops            0                       # Number of snoops hitting in the snoop filter with multiple (>1) holders of the requested data. (Count)
system.workload.inst.arm                            0                       # number of arm instructions executed (Count)
system.workload.inst.quiesce                        0                       # number of quiesce instructions executed (Count)

---------- End Simulation Statistics   ----------
