
---------- Begin Simulation Statistics ----------
simSeconds                                   1.717025                       # Number of seconds simulated (Second)
simTicks                                 1717025273295                       # Number of ticks simulated (Tick)
finalTick                                1717025273295                       # Number of ticks from beginning of simulation (restored from checkpoints and never reset) (Tick)
simFreq                                  1000000000000                       # The number of ticks per simulated second ((Tick/Second))
hostSeconds                                     72.13                       # Real time elapsed on the host (Second)
hostTickRate                              23806074953                       # The number of ticks simulated per host second (ticks/s) ((Tick/Second))
hostMemory                                    8637280                       # Number of bytes of host memory used (Byte)
simInsts                                     46077923                       # Number of instructions simulated (Count)
simOps                                       79741556                       # Number of ops (including micro ops) simulated (Count)
hostInstRate                                   638856                       # Simulator instruction rate (inst/s) ((Count/Second))
hostOpRate                                    1105592                       # Simulator op (including micro ops) rate (op/s) ((Count/Second))
system.clk_domain.clock                         13333                       # Clock period in ticks (Tick)
system.clk_domain.voltage_domain.voltage            1                       # Voltage in Volts (Volt)
system.cpu.numCycles                        128780115                       # Number of cpu cycles simulated (Cycle)
system.cpu.cpi                               2.794788                       # CPI: cycles per instruction (core level) ((Cycle/Count))
system.cpu.ipc                               0.357809                       # IPC: instructions per cycle (core level) ((Count/Cycle))
system.cpu.numWorkItemsStarted                      0                       # Number of work items this cpu started (Count)
system.cpu.numWorkItemsCompleted                    0                       # Number of work items this cpu completed (Count)
system.cpu.commitStats0.numInsts             46078668                       # Number of instructions committed (thread level) (Count)
system.cpu.commitStats0.numOps               79742480                       # Number of ops (including micro ops) committed (thread level) (Count)
system.cpu.commitStats0.numInstsNotNOP              0                       # Number of instructions committed excluding NOPs or prefetches (Count)
system.cpu.commitStats0.numOpsNotNOP                0                       # Number of Ops (including micro ops) Simulated (Count)
system.cpu.commitStats0.cpi                  2.794788                       # CPI: cycles per instruction (thread level) ((Cycle/Count))
system.cpu.commitStats0.ipc                  0.357809                       # IPC: instructions per cycle (thread level) ((Count/Cycle))
system.cpu.commitStats0.numMemRefs                  0                       # Number of memory references committed (Count)
system.cpu.commitStats0.numFpInsts             105975                       # Number of float instructions (Count)
system.cpu.commitStats0.numIntInsts          79466479                       # Number of integer instructions (Count)
system.cpu.commitStats0.numLoadInsts         11868827                       # Number of load instructions (Count)
system.cpu.commitStats0.numStoreInsts         3028946                       # Number of store instructions (Count)
system.cpu.commitStats0.numVecInsts                 0                       # Number of vector instructions (Count)
system.cpu.commitStats0.committedInstType::No_OpClass       112338      0.14%      0.14% # Class of committed instruction. (Count)
system.cpu.commitStats0.committedInstType::IntAlu     64489370     80.87%     81.01% # Class of committed instruction. (Count)
system.cpu.commitStats0.committedInstType::IntMult       142178      0.18%     81.19% # Class of committed instruction. (Count)
system.cpu.commitStats0.committedInstType::IntDiv        40027      0.05%     81.24% # Class of committed instruction. (Count)
system.cpu.commitStats0.committedInstType::FloatAdd         7568      0.01%     81.25% # Class of committed instruction. (Count)
system.cpu.commitStats0.committedInstType::FloatCmp            0      0.00%     81.25% # Class of committed instruction. (Count)
system.cpu.commitStats0.committedInstType::FloatCvt         1728      0.00%     81.25% # Class of committed instruction. (Count)
system.cpu.commitStats0.committedInstType::FloatMult            0      0.00%     81.25% # Class of committed instruction. (Count)
system.cpu.commitStats0.committedInstType::FloatMultAcc            0      0.00%     81.25% # Class of committed instruction. (Count)
system.cpu.commitStats0.committedInstType::FloatDiv            0      0.00%     81.25% # Class of committed instruction. (Count)
system.cpu.commitStats0.committedInstType::FloatMisc            0      0.00%     81.25% # Class of committed instruction. (Count)
system.cpu.commitStats0.committedInstType::FloatSqrt            0      0.00%     81.25% # Class of committed instruction. (Count)
system.cpu.commitStats0.committedInstType::SimdAdd         7022      0.01%     81.26% # Class of committed instruction. (Count)
system.cpu.commitStats0.committedInstType::SimdAddAcc            0      0.00%     81.26% # Class of committed instruction. (Count)
system.cpu.commitStats0.committedInstType::SimdAlu        13595      0.02%     81.28% # Class of committed instruction. (Count)
system.cpu.commitStats0.committedInstType::SimdCmp            6      0.00%     81.28% # Class of committed instruction. (Count)
system.cpu.commitStats0.committedInstType::SimdCvt        14070      0.02%     81.30% # Class of committed instruction. (Count)
system.cpu.commitStats0.committedInstType::SimdMisc        14654      0.02%     81.31% # Class of committed instruction. (Count)
system.cpu.commitStats0.committedInstType::SimdMult            0      0.00%     81.31% # Class of committed instruction. (Count)
system.cpu.commitStats0.committedInstType::SimdMultAcc            0      0.00%     81.31% # Class of committed instruction. (Count)
system.cpu.commitStats0.committedInstType::SimdMatMultAcc            0      0.00%     81.31% # Class of committed instruction. (Count)
system.cpu.commitStats0.committedInstType::SimdShift         2031      0.00%     81.32% # Class of committed instruction. (Count)
system.cpu.commitStats0.committedInstType::SimdShiftAcc            0      0.00%     81.32% # Class of committed instruction. (Count)
system.cpu.commitStats0.committedInstType::SimdDiv            0      0.00%     81.32% # Class of committed instruction. (Count)
system.cpu.commitStats0.committedInstType::SimdSqrt            0      0.00%     81.32% # Class of committed instruction. (Count)
system.cpu.commitStats0.committedInstType::SimdFloatAdd           27      0.00%     81.32% # Class of committed instruction. (Count)
system.cpu.commitStats0.committedInstType::SimdFloatAlu            0      0.00%     81.32% # Class of committed instruction. (Count)
system.cpu.commitStats0.committedInstType::SimdFloatCmp            0      0.00%     81.32% # Class of committed instruction. (Count)
system.cpu.commitStats0.committedInstType::SimdFloatCvt           66      0.00%     81.32% # Class of committed instruction. (Count)
system.cpu.commitStats0.committedInstType::SimdFloatDiv           25      0.00%     81.32% # Class of committed instruction. (Count)
system.cpu.commitStats0.committedInstType::SimdFloatMisc            0      0.00%     81.32% # Class of committed instruction. (Count)
system.cpu.commitStats0.committedInstType::SimdFloatMult            0      0.00%     81.32% # Class of committed instruction. (Count)
system.cpu.commitStats0.committedInstType::SimdFloatMultAcc            0      0.00%     81.32% # Class of committed instruction. (Count)
system.cpu.commitStats0.committedInstType::SimdFloatMatMultAcc            0      0.00%     81.32% # Class of committed instruction. (Count)
system.cpu.commitStats0.committedInstType::SimdFloatSqrt            2      0.00%     81.32% # Class of committed instruction. (Count)
system.cpu.commitStats0.committedInstType::SimdReduceAdd            0      0.00%     81.32% # Class of committed instruction. (Count)
system.cpu.commitStats0.committedInstType::SimdReduceAlu            0      0.00%     81.32% # Class of committed instruction. (Count)
system.cpu.commitStats0.committedInstType::SimdReduceCmp            0      0.00%     81.32% # Class of committed instruction. (Count)
system.cpu.commitStats0.committedInstType::SimdFloatReduceAdd            0      0.00%     81.32% # Class of committed instruction. (Count)
system.cpu.commitStats0.committedInstType::SimdFloatReduceCmp            0      0.00%     81.32% # Class of committed instruction. (Count)
system.cpu.commitStats0.committedInstType::SimdAes            0      0.00%     81.32% # Class of committed instruction. (Count)
system.cpu.commitStats0.committedInstType::SimdAesMix            0      0.00%     81.32% # Class of committed instruction. (Count)
system.cpu.commitStats0.committedInstType::SimdSha1Hash            0      0.00%     81.32% # Class of committed instruction. (Count)
system.cpu.commitStats0.committedInstType::SimdSha1Hash2            0      0.00%     81.32% # Class of committed instruction. (Count)
system.cpu.commitStats0.committedInstType::SimdSha256Hash            0      0.00%     81.32% # Class of committed instruction. (Count)
system.cpu.commitStats0.committedInstType::SimdSha256Hash2            0      0.00%     81.32% # Class of committed instruction. (Count)
system.cpu.commitStats0.committedInstType::SimdShaSigma2            0      0.00%     81.32% # Class of committed instruction. (Count)
system.cpu.commitStats0.committedInstType::SimdShaSigma3            0      0.00%     81.32% # Class of committed instruction. (Count)
system.cpu.commitStats0.committedInstType::SimdPredAlu            0      0.00%     81.32% # Class of committed instruction. (Count)
system.cpu.commitStats0.committedInstType::Matrix            0      0.00%     81.32% # Class of committed instruction. (Count)
system.cpu.commitStats0.committedInstType::MatrixMov            0      0.00%     81.32% # Class of committed instruction. (Count)
system.cpu.commitStats0.committedInstType::MatrixOP            0      0.00%     81.32% # Class of committed instruction. (Count)
system.cpu.commitStats0.committedInstType::MemRead     11849892     14.86%     96.18% # Class of committed instruction. (Count)
system.cpu.commitStats0.committedInstType::MemWrite      3007216      3.77%     99.95% # Class of committed instruction. (Count)
system.cpu.commitStats0.committedInstType::FloatMemRead        18935      0.02%     99.97% # Class of committed instruction. (Count)
system.cpu.commitStats0.committedInstType::FloatMemWrite        21730      0.03%    100.00% # Class of committed instruction. (Count)
system.cpu.commitStats0.committedInstType::IprAccess            0      0.00%    100.00% # Class of committed instruction. (Count)
system.cpu.commitStats0.committedInstType::InstPrefetch            0      0.00%    100.00% # Class of committed instruction. (Count)
system.cpu.commitStats0.committedInstType::SimdUnitStrideLoad            0      0.00%    100.00% # Class of committed instruction. (Count)
system.cpu.commitStats0.committedInstType::SimdUnitStrideStore            0      0.00%    100.00% # Class of committed instruction. (Count)
system.cpu.commitStats0.committedInstType::SimdUnitStrideMaskLoad            0      0.00%    100.00% # Class of committed instruction. (Count)
system.cpu.commitStats0.committedInstType::SimdUnitStrideMaskStore            0      0.00%    100.00% # Class of committed instruction. (Count)
system.cpu.commitStats0.committedInstType::SimdStridedLoad            0      0.00%    100.00% # Class of committed instruction. (Count)
system.cpu.commitStats0.committedInstType::SimdStridedStore            0      0.00%    100.00% # Class of committed instruction. (Count)
system.cpu.commitStats0.committedInstType::SimdIndexedLoad            0      0.00%    100.00% # Class of committed instruction. (Count)
system.cpu.commitStats0.committedInstType::SimdIndexedStore            0      0.00%    100.00% # Class of committed instruction. (Count)
system.cpu.commitStats0.committedInstType::SimdWholeRegisterLoad            0      0.00%    100.00% # Class of committed instruction. (Count)
system.cpu.commitStats0.committedInstType::SimdWholeRegisterStore            0      0.00%    100.00% # Class of committed instruction. (Count)
system.cpu.commitStats0.committedInstType::SimdUnitStrideFaultOnlyFirstLoad            0      0.00%    100.00% # Class of committed instruction. (Count)
system.cpu.commitStats0.committedInstType::SimdUnitStrideSegmentedLoad            0      0.00%    100.00% # Class of committed instruction. (Count)
system.cpu.commitStats0.committedInstType::SimdUnitStrideSegmentedStore            0      0.00%    100.00% # Class of committed instruction. (Count)
system.cpu.commitStats0.committedInstType::SimdExt            0      0.00%    100.00% # Class of committed instruction. (Count)
system.cpu.commitStats0.committedInstType::SimdFloatExt            0      0.00%    100.00% # Class of committed instruction. (Count)
system.cpu.commitStats0.committedInstType::SimdConfig            0      0.00%    100.00% # Class of committed instruction. (Count)
system.cpu.commitStats0.committedInstType::total     79742480                       # Class of committed instruction. (Count)
system.cpu.commitStats0.committedControl::IsControl      9749084                       # Class of control type instructions committed (Count)
system.cpu.commitStats0.committedControl::IsDirectControl      9175289                       # Class of control type instructions committed (Count)
system.cpu.commitStats0.committedControl::IsIndirectControl       573501                       # Class of control type instructions committed (Count)
system.cpu.commitStats0.committedControl::IsCondControl      7455537                       # Class of control type instructions committed (Count)
system.cpu.commitStats0.committedControl::IsUncondControl      2293253                       # Class of control type instructions committed (Count)
system.cpu.commitStats0.committedControl::IsCall       526648                       # Class of control type instructions committed (Count)
system.cpu.commitStats0.committedControl::IsReturn       526643                       # Class of control type instructions committed (Count)
system.cpu.exec_context.thread_0.numMatAluAccesses            0                       # Number of matrix alu accesses (Count)
system.cpu.exec_context.thread_0.numCallsReturns      1053291                       # Number of times a function call or return occured (Count)
system.cpu.exec_context.thread_0.numMatInsts            0                       # Number of matrix instructions (Count)
system.cpu.exec_context.thread_0.numIdleCycles            0                       # Number of idle cycles (Cycle)
system.cpu.exec_context.thread_0.numBusyCycles    128780115                       # Number of busy cycles (Cycle)
system.cpu.exec_context.thread_0.notIdleFraction            1                       # Percentage of non-idle cycles (Ratio)
system.cpu.exec_context.thread_0.idleFraction            0                       # Percentage of idle cycles (Ratio)
system.cpu.executeStats0.numInsts                   0                       # Number of executed instructions (Count)
system.cpu.executeStats0.numNop                     0                       # Number of nop insts executed (Count)
system.cpu.executeStats0.numBranches                0                       # Number of branches executed (Count)
system.cpu.executeStats0.numLoadInsts               0                       # Number of load instructions executed (Count)
system.cpu.executeStats0.numStoreInsts       14897773                       # Number of stores executed (Count)
system.cpu.executeStats0.instRate                   0                       # Inst execution rate ((Count/Cycle))
system.cpu.executeStats0.numFpAluAccesses       105975                       # Number of float alu accesses (Count)
system.cpu.executeStats0.numFpRegReads         143412                       # Number of times the floating registers were read (Count)
system.cpu.executeStats0.numFpRegWrites         75223                       # Number of times the floating registers were written (Count)
system.cpu.executeStats0.numIntAluAccesses     79466479                       # Number of integer alu accesses (Count)
system.cpu.executeStats0.numIntRegReads      98175087                       # Number of times the integer registers were read (Count)
system.cpu.executeStats0.numIntRegWrites     58158250                       # Number of times the integer registers were written (Count)
system.cpu.executeStats0.numMemRefs          14897773                       # Number of memory refs (Count)
system.cpu.executeStats0.numMiscRegReads     33985366                       # Number of times the Misc registers were read (Count)
system.cpu.executeStats0.numMiscRegWrites          972                       # Number of times the Misc registers were written (Count)
system.cpu.executeStats0.numVecAluAccesses            0                       # Number of vector alu accesses (Count)
system.cpu.executeStats0.numDiscardedOps            0                       # Number of ops (including micro ops) which were discarded before commit (Count)
system.cpu.fetchStats0.numInsts              46078668                       # Number of instructions fetched (thread level) (Count)
system.cpu.fetchStats0.numOps                79742480                       # Number of ops (including micro ops) fetched (thread level) (Count)
system.cpu.fetchStats0.fetchRate             0.357809                       # Number of inst fetches per cycle ((Count/Cycle))
system.cpu.fetchStats0.numBranches            9749084                       # Number of branches fetched (Count)
system.cpu.fetchStats0.branchRate            0.075703                       # Number of branch fetches per cycle (Ratio)
system.cpu.fetchStats0.numFetchSuspends             0                       # Number of times Execute suspended instruction fetching (Count)
system.cpu.interrupts.clk_domain.clock         213328                       # Clock period in ticks (Tick)
system.cpu.l1d.demandHits::cpu.data          13942163                       # number of demand (read+write) hits (Count)
system.cpu.l1d.demandHits::total             13942163                       # number of demand (read+write) hits (Count)
system.cpu.l1d.overallHits::cpu.data         13942163                       # number of overall hits (Count)
system.cpu.l1d.overallHits::total            13942163                       # number of overall hits (Count)
system.cpu.l1d.demandMisses::cpu.data          853748                       # number of demand (read+write) misses (Count)
system.cpu.l1d.demandMisses::total             853748                       # number of demand (read+write) misses (Count)
system.cpu.l1d.overallMisses::cpu.data         853748                       # number of overall misses (Count)
system.cpu.l1d.overallMisses::total            853748                       # number of overall misses (Count)
system.cpu.l1d.demandMissLatency::cpu.data 181577207123                       # number of demand (read+write) miss ticks (Tick)
system.cpu.l1d.demandMissLatency::total  181577207123                       # number of demand (read+write) miss ticks (Tick)
system.cpu.l1d.overallMissLatency::cpu.data 181577207123                       # number of overall miss ticks (Tick)
system.cpu.l1d.overallMissLatency::total 181577207123                       # number of overall miss ticks (Tick)
system.cpu.l1d.demandAccesses::cpu.data      14795911                       # number of demand (read+write) accesses (Count)
system.cpu.l1d.demandAccesses::total         14795911                       # number of demand (read+write) accesses (Count)
system.cpu.l1d.overallAccesses::cpu.data     14795911                       # number of overall (read+write) accesses (Count)
system.cpu.l1d.overallAccesses::total        14795911                       # number of overall (read+write) accesses (Count)
system.cpu.l1d.demandMissRate::cpu.data      0.057702                       # miss rate for demand accesses (Ratio)
system.cpu.l1d.demandMissRate::total         0.057702                       # miss rate for demand accesses (Ratio)
system.cpu.l1d.overallMissRate::cpu.data     0.057702                       # miss rate for overall accesses (Ratio)
system.cpu.l1d.overallMissRate::total        0.057702                       # miss rate for overall accesses (Ratio)
system.cpu.l1d.demandAvgMissLatency::cpu.data 212682.439224                       # average overall miss latency in ticks ((Tick/Count))
system.cpu.l1d.demandAvgMissLatency::total 212682.439224                       # average overall miss latency in ticks ((Tick/Count))
system.cpu.l1d.overallAvgMissLatency::cpu.data 212682.439224                       # average overall miss latency ((Tick/Count))
system.cpu.l1d.overallAvgMissLatency::total 212682.439224                       # average overall miss latency ((Tick/Count))
system.cpu.l1d.blockedCycles::no_mshrs              0                       # number of cycles access was blocked (Cycle)
system.cpu.l1d.blockedCycles::no_targets            0                       # number of cycles access was blocked (Cycle)
system.cpu.l1d.blockedCauses::no_mshrs              0                       # number of times access was blocked (Count)
system.cpu.l1d.blockedCauses::no_targets            0                       # number of times access was blocked (Count)
system.cpu.l1d.avgBlocked::no_mshrs               nan                       # average number of cycles each access was blocked ((Cycle/Count))
system.cpu.l1d.avgBlocked::no_targets             nan                       # average number of cycles each access was blocked ((Cycle/Count))
system.cpu.l1d.writebacks::writebacks          240039                       # number of writebacks (Count)
system.cpu.l1d.writebacks::total               240039                       # number of writebacks (Count)
system.cpu.l1d.demandMshrHits::cpu.data          4648                       # number of demand (read+write) MSHR hits (Count)
system.cpu.l1d.demandMshrHits::total             4648                       # number of demand (read+write) MSHR hits (Count)
system.cpu.l1d.overallMshrHits::cpu.data         4648                       # number of overall MSHR hits (Count)
system.cpu.l1d.overallMshrHits::total            4648                       # number of overall MSHR hits (Count)
system.cpu.l1d.demandMshrMisses::cpu.data       849100                       # number of demand (read+write) MSHR misses (Count)
system.cpu.l1d.demandMshrMisses::total         849100                       # number of demand (read+write) MSHR misses (Count)
system.cpu.l1d.overallMshrMisses::cpu.data       849100                       # number of overall MSHR misses (Count)
system.cpu.l1d.overallMshrMisses::cpu.l1d.prefetcher       800145                       # number of overall MSHR misses (Count)
system.cpu.l1d.overallMshrMisses::total       1649245                       # number of overall MSHR misses (Count)
system.cpu.l1d.demandMshrMissLatency::cpu.data 169958124274                       # number of demand (read+write) MSHR miss ticks (Tick)
system.cpu.l1d.demandMshrMissLatency::total 169958124274                       # number of demand (read+write) MSHR miss ticks (Tick)
system.cpu.l1d.overallMshrMissLatency::cpu.data 169958124274                       # number of overall MSHR miss ticks (Tick)
system.cpu.l1d.overallMshrMissLatency::cpu.l1d.prefetcher 186189678626                       # number of overall MSHR miss ticks (Tick)
system.cpu.l1d.overallMshrMissLatency::total 356147802900                       # number of overall MSHR miss ticks (Tick)
system.cpu.l1d.demandMshrMissRate::cpu.data     0.057387                       # mshr miss ratio for demand accesses (Ratio)
system.cpu.l1d.demandMshrMissRate::total     0.057387                       # mshr miss ratio for demand accesses (Ratio)
system.cpu.l1d.overallMshrMissRate::cpu.data     0.057387                       # mshr miss ratio for overall accesses (Ratio)
system.cpu.l1d.overallMshrMissRate::cpu.l1d.prefetcher          inf                       # mshr miss ratio for overall accesses (Ratio)
system.cpu.l1d.overallMshrMissRate::total     0.111466                       # mshr miss ratio for overall accesses (Ratio)
system.cpu.l1d.demandAvgMshrMissLatency::cpu.data 200162.671386                       # average overall mshr miss latency ((Tick/Count))
system.cpu.l1d.demandAvgMshrMissLatency::total 200162.671386                       # average overall mshr miss latency ((Tick/Count))
system.cpu.l1d.overallAvgMshrMissLatency::cpu.data 200162.671386                       # average overall mshr miss latency ((Tick/Count))
system.cpu.l1d.overallAvgMshrMissLatency::cpu.l1d.prefetcher 232694.922328                       # average overall mshr miss latency ((Tick/Count))
system.cpu.l1d.overallAvgMshrMissLatency::total 215945.964911                       # average overall mshr miss latency ((Tick/Count))
system.cpu.l1d.replacements                   1649223                       # number of replacements (Count)
system.cpu.l1d.HardPFReq.mshrMisses::cpu.l1d.prefetcher       800145                       # number of HardPFReq MSHR misses (Count)
system.cpu.l1d.HardPFReq.mshrMisses::total       800145                       # number of HardPFReq MSHR misses (Count)
system.cpu.l1d.HardPFReq.mshrMissLatency::cpu.l1d.prefetcher 186189678626                       # number of HardPFReq MSHR miss ticks (Tick)
system.cpu.l1d.HardPFReq.mshrMissLatency::total 186189678626                       # number of HardPFReq MSHR miss ticks (Tick)
system.cpu.l1d.HardPFReq.mshrMissRate::cpu.l1d.prefetcher          inf                       # mshr miss rate for HardPFReq accesses (Ratio)
system.cpu.l1d.HardPFReq.mshrMissRate::total          inf                       # mshr miss rate for HardPFReq accesses (Ratio)
system.cpu.l1d.HardPFReq.avgMshrMissLatency::cpu.l1d.prefetcher 232694.922328                       # average HardPFReq mshr miss latency ((Tick/Count))
system.cpu.l1d.HardPFReq.avgMshrMissLatency::total 232694.922328                       # average HardPFReq mshr miss latency ((Tick/Count))
system.cpu.l1d.LockedRMWReadReq.hits::cpu.data        50546                       # number of LockedRMWReadReq hits (Count)
system.cpu.l1d.LockedRMWReadReq.hits::total        50546                       # number of LockedRMWReadReq hits (Count)
system.cpu.l1d.LockedRMWReadReq.misses::cpu.data           42                       # number of LockedRMWReadReq misses (Count)
system.cpu.l1d.LockedRMWReadReq.misses::total           42                       # number of LockedRMWReadReq misses (Count)
system.cpu.l1d.LockedRMWReadReq.missLatency::cpu.data      8586452                       # number of LockedRMWReadReq miss ticks (Tick)
system.cpu.l1d.LockedRMWReadReq.missLatency::total      8586452                       # number of LockedRMWReadReq miss ticks (Tick)
system.cpu.l1d.LockedRMWReadReq.accesses::cpu.data        50588                       # number of LockedRMWReadReq accesses(hits+misses) (Count)
system.cpu.l1d.LockedRMWReadReq.accesses::total        50588                       # number of LockedRMWReadReq accesses(hits+misses) (Count)
system.cpu.l1d.LockedRMWReadReq.missRate::cpu.data     0.000830                       # miss rate for LockedRMWReadReq accesses (Ratio)
system.cpu.l1d.LockedRMWReadReq.missRate::total     0.000830                       # miss rate for LockedRMWReadReq accesses (Ratio)
system.cpu.l1d.LockedRMWReadReq.avgMissLatency::cpu.data 204439.333333                       # average LockedRMWReadReq miss latency ((Tick/Count))
system.cpu.l1d.LockedRMWReadReq.avgMissLatency::total 204439.333333                       # average LockedRMWReadReq miss latency ((Tick/Count))
system.cpu.l1d.LockedRMWReadReq.mshrMisses::cpu.data           42                       # number of LockedRMWReadReq MSHR misses (Count)
system.cpu.l1d.LockedRMWReadReq.mshrMisses::total           42                       # number of LockedRMWReadReq MSHR misses (Count)
system.cpu.l1d.LockedRMWReadReq.mshrMissLatency::cpu.data   1814194644                       # number of LockedRMWReadReq MSHR miss ticks (Tick)
system.cpu.l1d.LockedRMWReadReq.mshrMissLatency::total   1814194644                       # number of LockedRMWReadReq MSHR miss ticks (Tick)
system.cpu.l1d.LockedRMWReadReq.mshrMissRate::cpu.data     0.000830                       # mshr miss rate for LockedRMWReadReq accesses (Ratio)
system.cpu.l1d.LockedRMWReadReq.mshrMissRate::total     0.000830                       # mshr miss rate for LockedRMWReadReq accesses (Ratio)
system.cpu.l1d.LockedRMWReadReq.avgMshrMissLatency::cpu.data 43195110.571429                       # average LockedRMWReadReq mshr miss latency ((Tick/Count))
system.cpu.l1d.LockedRMWReadReq.avgMshrMissLatency::total 43195110.571429                       # average LockedRMWReadReq mshr miss latency ((Tick/Count))
system.cpu.l1d.LockedRMWWriteReq.hits::cpu.data        50588                       # number of LockedRMWWriteReq hits (Count)
system.cpu.l1d.LockedRMWWriteReq.hits::total        50588                       # number of LockedRMWWriteReq hits (Count)
system.cpu.l1d.LockedRMWWriteReq.accesses::cpu.data        50588                       # number of LockedRMWWriteReq accesses(hits+misses) (Count)
system.cpu.l1d.LockedRMWWriteReq.accesses::total        50588                       # number of LockedRMWWriteReq accesses(hits+misses) (Count)
system.cpu.l1d.ReadReq.hits::cpu.data        11004841                       # number of ReadReq hits (Count)
system.cpu.l1d.ReadReq.hits::total           11004841                       # number of ReadReq hits (Count)
system.cpu.l1d.ReadReq.misses::cpu.data        813180                       # number of ReadReq misses (Count)
system.cpu.l1d.ReadReq.misses::total           813180                       # number of ReadReq misses (Count)
system.cpu.l1d.ReadReq.missLatency::cpu.data 174042395498                       # number of ReadReq miss ticks (Tick)
system.cpu.l1d.ReadReq.missLatency::total 174042395498                       # number of ReadReq miss ticks (Tick)
system.cpu.l1d.ReadReq.accesses::cpu.data     11818021                       # number of ReadReq accesses(hits+misses) (Count)
system.cpu.l1d.ReadReq.accesses::total       11818021                       # number of ReadReq accesses(hits+misses) (Count)
system.cpu.l1d.ReadReq.missRate::cpu.data     0.068808                       # miss rate for ReadReq accesses (Ratio)
system.cpu.l1d.ReadReq.missRate::total       0.068808                       # miss rate for ReadReq accesses (Ratio)
system.cpu.l1d.ReadReq.avgMissLatency::cpu.data 214026.901176                       # average ReadReq miss latency ((Tick/Count))
system.cpu.l1d.ReadReq.avgMissLatency::total 214026.901176                       # average ReadReq miss latency ((Tick/Count))
system.cpu.l1d.ReadReq.mshrHits::cpu.data         2575                       # number of ReadReq MSHR hits (Count)
system.cpu.l1d.ReadReq.mshrHits::total           2575                       # number of ReadReq MSHR hits (Count)
system.cpu.l1d.ReadReq.mshrMisses::cpu.data       810605                       # number of ReadReq MSHR misses (Count)
system.cpu.l1d.ReadReq.mshrMisses::total       810605                       # number of ReadReq MSHR misses (Count)
system.cpu.l1d.ReadReq.mshrMissLatency::cpu.data 163045030439                       # number of ReadReq MSHR miss ticks (Tick)
system.cpu.l1d.ReadReq.mshrMissLatency::total 163045030439                       # number of ReadReq MSHR miss ticks (Tick)
system.cpu.l1d.ReadReq.mshrMissRate::cpu.data     0.068591                       # mshr miss rate for ReadReq accesses (Ratio)
system.cpu.l1d.ReadReq.mshrMissRate::total     0.068591                       # mshr miss rate for ReadReq accesses (Ratio)
system.cpu.l1d.ReadReq.avgMshrMissLatency::cpu.data 201139.926893                       # average ReadReq mshr miss latency ((Tick/Count))
system.cpu.l1d.ReadReq.avgMshrMissLatency::total 201139.926893                       # average ReadReq mshr miss latency ((Tick/Count))
system.cpu.l1d.WriteReq.hits::cpu.data        2937322                       # number of WriteReq hits (Count)
system.cpu.l1d.WriteReq.hits::total           2937322                       # number of WriteReq hits (Count)
system.cpu.l1d.WriteReq.misses::cpu.data        40568                       # number of WriteReq misses (Count)
system.cpu.l1d.WriteReq.misses::total           40568                       # number of WriteReq misses (Count)
system.cpu.l1d.WriteReq.missLatency::cpu.data   7534811625                       # number of WriteReq miss ticks (Tick)
system.cpu.l1d.WriteReq.missLatency::total   7534811625                       # number of WriteReq miss ticks (Tick)
system.cpu.l1d.WriteReq.accesses::cpu.data      2977890                       # number of WriteReq accesses(hits+misses) (Count)
system.cpu.l1d.WriteReq.accesses::total       2977890                       # number of WriteReq accesses(hits+misses) (Count)
system.cpu.l1d.WriteReq.missRate::cpu.data     0.013623                       # miss rate for WriteReq accesses (Ratio)
system.cpu.l1d.WriteReq.missRate::total      0.013623                       # miss rate for WriteReq accesses (Ratio)
system.cpu.l1d.WriteReq.avgMissLatency::cpu.data 185732.883677                       # average WriteReq miss latency ((Tick/Count))
system.cpu.l1d.WriteReq.avgMissLatency::total 185732.883677                       # average WriteReq miss latency ((Tick/Count))
system.cpu.l1d.WriteReq.mshrHits::cpu.data         2073                       # number of WriteReq MSHR hits (Count)
system.cpu.l1d.WriteReq.mshrHits::total          2073                       # number of WriteReq MSHR hits (Count)
system.cpu.l1d.WriteReq.mshrMisses::cpu.data        38495                       # number of WriteReq MSHR misses (Count)
system.cpu.l1d.WriteReq.mshrMisses::total        38495                       # number of WriteReq MSHR misses (Count)
system.cpu.l1d.WriteReq.mshrMissLatency::cpu.data   6913093835                       # number of WriteReq MSHR miss ticks (Tick)
system.cpu.l1d.WriteReq.mshrMissLatency::total   6913093835                       # number of WriteReq MSHR miss ticks (Tick)
system.cpu.l1d.WriteReq.mshrMissRate::cpu.data     0.012927                       # mshr miss rate for WriteReq accesses (Ratio)
system.cpu.l1d.WriteReq.mshrMissRate::total     0.012927                       # mshr miss rate for WriteReq accesses (Ratio)
system.cpu.l1d.WriteReq.avgMshrMissLatency::cpu.data 179584.201455                       # average WriteReq mshr miss latency ((Tick/Count))
system.cpu.l1d.WriteReq.avgMshrMissLatency::total 179584.201455                       # average WriteReq mshr miss latency ((Tick/Count))
system.cpu.l1d.power_state.pwrStateResidencyTicks::UNDEFINED 1717025273295                       # Cumulative time (in ticks) in various power states (Tick)
system.cpu.l1d.prefetcher.demandMshrMisses       849100                       # demands not covered by prefetchs (Count)
system.cpu.l1d.prefetcher.pfIssued            1089287                       # number of hwpf issued (Count)
system.cpu.l1d.prefetcher.pfUnused             546694                       # number of HardPF blocks evicted w/o reference (Count)
system.cpu.l1d.prefetcher.pfUseful             248782                       # number of useful prefetch (Count)
system.cpu.l1d.prefetcher.pfUsefulButMiss            0                       # number of hit on prefetch but cache block is not in an usable state (Count)
system.cpu.l1d.prefetcher.accuracy           0.228390                       # accuracy of the prefetcher (Count)
system.cpu.l1d.prefetcher.coverage           0.226602                       # coverage brought by this prefetcher (Count)
system.cpu.l1d.prefetcher.pfHitInCache         287997                       # number of prefetches hitting in cache (Count)
system.cpu.l1d.prefetcher.pfHitInMSHR               1                       # number of prefetches hitting in a MSHR (Count)
system.cpu.l1d.prefetcher.pfHitInWB              1144                       # number of prefetches hit in the Write Buffer (Count)
system.cpu.l1d.prefetcher.pfLate               289142                       # number of late prefetches (hitting in cache, MSHR or WB) (Count)
system.cpu.l1d.prefetcher.pfIdentified        1089314                       # number of prefetch candidates identified (Count)
system.cpu.l1d.prefetcher.pfBufferHit               0                       # number of redundant prefetches already in prefetch queue (Count)
system.cpu.l1d.prefetcher.pfInCache                 0                       # number of redundant prefetches already in cache/mshr dropped (Count)
system.cpu.l1d.prefetcher.pfRemovedDemand           27                       # number of prefetches dropped due to a demand for the same address (Count)
system.cpu.l1d.prefetcher.pfRemovedFull             0                       # number of prefetches dropped due to prefetch queue size (Count)
system.cpu.l1d.prefetcher.pfSpanPage            13258                       # number of prefetches that crossed the page (Count)
system.cpu.l1d.prefetcher.pfUsefulSpanPage         2617                       # number of prefetches that is useful and crossed the page (Count)
system.cpu.l1d.prefetcher.power_state.pwrStateResidencyTicks::UNDEFINED 1717025273295                       # Cumulative time (in ticks) in various power states (Tick)
system.cpu.l1d.tags.tagsInUse               63.999450                       # Average ticks per tags in use ((Tick/Count))
system.cpu.l1d.tags.totalRefs                15691734                       # Total number of references to valid blocks. (Count)
system.cpu.l1d.tags.sampledRefs               1649223                       # Sample count of references to valid blocks. (Count)
system.cpu.l1d.tags.avgRefs                  9.514622                       # Average number of references to valid blocks. ((Count/Count))
system.cpu.l1d.tags.warmupTick                 479988                       # The tick when the warmup percentage was hit. (Tick)
system.cpu.l1d.tags.occupancies::cpu.data    29.714808                       # Average occupied blocks per tick, per requestor ((Count/Tick))
system.cpu.l1d.tags.occupancies::cpu.l1d.prefetcher    34.284642                       # Average occupied blocks per tick, per requestor ((Count/Tick))
system.cpu.l1d.tags.avgOccs::cpu.data        0.464294                       # Average percentage of cache occupancy ((Ratio/Tick))
system.cpu.l1d.tags.avgOccs::cpu.l1d.prefetcher     0.535698                       # Average percentage of cache occupancy ((Ratio/Tick))
system.cpu.l1d.tags.avgOccs::total           0.999991                       # Average percentage of cache occupancy ((Ratio/Tick))
system.cpu.l1d.tags.occupanciesTaskId::1022           29                       # Occupied blocks per task id (Count)
system.cpu.l1d.tags.occupanciesTaskId::1024           35                       # Occupied blocks per task id (Count)
system.cpu.l1d.tags.ageTaskId_1022::0               2                       # Occupied blocks per task id, per block age (Count)
system.cpu.l1d.tags.ageTaskId_1022::1              24                       # Occupied blocks per task id, per block age (Count)
system.cpu.l1d.tags.ageTaskId_1022::2               3                       # Occupied blocks per task id, per block age (Count)
system.cpu.l1d.tags.ageTaskId_1024::0               2                       # Occupied blocks per task id, per block age (Count)
system.cpu.l1d.tags.ageTaskId_1024::1              30                       # Occupied blocks per task id, per block age (Count)
system.cpu.l1d.tags.ageTaskId_1024::2               3                       # Occupied blocks per task id, per block age (Count)
system.cpu.l1d.tags.ratioOccsTaskId::1022     0.453125                       # Ratio of occupied blocks and all blocks, per task id (Ratio)
system.cpu.l1d.tags.ratioOccsTaskId::1024     0.546875                       # Ratio of occupied blocks and all blocks, per task id (Ratio)
system.cpu.l1d.tags.tagAccesses              31443461                       # Number of tag accesses (Count)
system.cpu.l1d.tags.dataAccesses             31443461                       # Number of data accesses (Count)
system.cpu.l1d.tags.power_state.pwrStateResidencyTicks::UNDEFINED 1717025273295                       # Cumulative time (in ticks) in various power states (Tick)
system.cpu.l1i.demandHits::cpu.inst          55376671                       # number of demand (read+write) hits (Count)
system.cpu.l1i.demandHits::total             55376671                       # number of demand (read+write) hits (Count)
system.cpu.l1i.overallHits::cpu.inst         55376671                       # number of overall hits (Count)
system.cpu.l1i.overallHits::total            55376671                       # number of overall hits (Count)
system.cpu.l1i.demandMisses::cpu.inst         2652459                       # number of demand (read+write) misses (Count)
system.cpu.l1i.demandMisses::total            2652459                       # number of demand (read+write) misses (Count)
system.cpu.l1i.overallMisses::cpu.inst        2652459                       # number of overall misses (Count)
system.cpu.l1i.overallMisses::total           2652459                       # number of overall misses (Count)
system.cpu.l1i.demandMissLatency::cpu.inst 522354594142                       # number of demand (read+write) miss ticks (Tick)
system.cpu.l1i.demandMissLatency::total  522354594142                       # number of demand (read+write) miss ticks (Tick)
system.cpu.l1i.overallMissLatency::cpu.inst 522354594142                       # number of overall miss ticks (Tick)
system.cpu.l1i.overallMissLatency::total 522354594142                       # number of overall miss ticks (Tick)
system.cpu.l1i.demandAccesses::cpu.inst      58029130                       # number of demand (read+write) accesses (Count)
system.cpu.l1i.demandAccesses::total         58029130                       # number of demand (read+write) accesses (Count)
system.cpu.l1i.overallAccesses::cpu.inst     58029130                       # number of overall (read+write) accesses (Count)
system.cpu.l1i.overallAccesses::total        58029130                       # number of overall (read+write) accesses (Count)
system.cpu.l1i.demandMissRate::cpu.inst      0.045709                       # miss rate for demand accesses (Ratio)
system.cpu.l1i.demandMissRate::total         0.045709                       # miss rate for demand accesses (Ratio)
system.cpu.l1i.overallMissRate::cpu.inst     0.045709                       # miss rate for overall accesses (Ratio)
system.cpu.l1i.overallMissRate::total        0.045709                       # miss rate for overall accesses (Ratio)
system.cpu.l1i.demandAvgMissLatency::cpu.inst 196932.202964                       # average overall miss latency in ticks ((Tick/Count))
system.cpu.l1i.demandAvgMissLatency::total 196932.202964                       # average overall miss latency in ticks ((Tick/Count))
system.cpu.l1i.overallAvgMissLatency::cpu.inst 196932.202964                       # average overall miss latency ((Tick/Count))
system.cpu.l1i.overallAvgMissLatency::total 196932.202964                       # average overall miss latency ((Tick/Count))
system.cpu.l1i.blockedCycles::no_mshrs              0                       # number of cycles access was blocked (Cycle)
system.cpu.l1i.blockedCycles::no_targets            0                       # number of cycles access was blocked (Cycle)
system.cpu.l1i.blockedCauses::no_mshrs              0                       # number of times access was blocked (Count)
system.cpu.l1i.blockedCauses::no_targets            0                       # number of times access was blocked (Count)
system.cpu.l1i.avgBlocked::no_mshrs               nan                       # average number of cycles each access was blocked ((Cycle/Count))
system.cpu.l1i.avgBlocked::no_targets             nan                       # average number of cycles each access was blocked ((Cycle/Count))
system.cpu.l1i.demandMshrHits::cpu.inst        729915                       # number of demand (read+write) MSHR hits (Count)
system.cpu.l1i.demandMshrHits::total           729915                       # number of demand (read+write) MSHR hits (Count)
system.cpu.l1i.overallMshrHits::cpu.inst       729915                       # number of overall MSHR hits (Count)
system.cpu.l1i.overallMshrHits::total          729915                       # number of overall MSHR hits (Count)
system.cpu.l1i.demandMshrMisses::cpu.inst      1922544                       # number of demand (read+write) MSHR misses (Count)
system.cpu.l1i.demandMshrMisses::total        1922544                       # number of demand (read+write) MSHR misses (Count)
system.cpu.l1i.overallMshrMisses::cpu.inst      1922544                       # number of overall MSHR misses (Count)
system.cpu.l1i.overallMshrMisses::cpu.l1i.prefetcher      4020926                       # number of overall MSHR misses (Count)
system.cpu.l1i.overallMshrMisses::total       5943470                       # number of overall MSHR misses (Count)
system.cpu.l1i.demandMshrMissLatency::cpu.inst 375587463412                       # number of demand (read+write) MSHR miss ticks (Tick)
system.cpu.l1i.demandMshrMissLatency::total 375587463412                       # number of demand (read+write) MSHR miss ticks (Tick)
system.cpu.l1i.overallMshrMissLatency::cpu.inst 375587463412                       # number of overall MSHR miss ticks (Tick)
system.cpu.l1i.overallMshrMissLatency::cpu.l1i.prefetcher 850753092147                       # number of overall MSHR miss ticks (Tick)
system.cpu.l1i.overallMshrMissLatency::total 1226340555559                       # number of overall MSHR miss ticks (Tick)
system.cpu.l1i.demandMshrMissRate::cpu.inst     0.033131                       # mshr miss ratio for demand accesses (Ratio)
system.cpu.l1i.demandMshrMissRate::total     0.033131                       # mshr miss ratio for demand accesses (Ratio)
system.cpu.l1i.overallMshrMissRate::cpu.inst     0.033131                       # mshr miss ratio for overall accesses (Ratio)
system.cpu.l1i.overallMshrMissRate::cpu.l1i.prefetcher          inf                       # mshr miss ratio for overall accesses (Ratio)
system.cpu.l1i.overallMshrMissRate::total     0.102422                       # mshr miss ratio for overall accesses (Ratio)
system.cpu.l1i.demandAvgMshrMissLatency::cpu.inst 195359.619032                       # average overall mshr miss latency ((Tick/Count))
system.cpu.l1i.demandAvgMshrMissLatency::total 195359.619032                       # average overall mshr miss latency ((Tick/Count))
system.cpu.l1i.overallAvgMshrMissLatency::cpu.inst 195359.619032                       # average overall mshr miss latency ((Tick/Count))
system.cpu.l1i.overallAvgMshrMissLatency::cpu.l1i.prefetcher 211581.385021                       # average overall mshr miss latency ((Tick/Count))
system.cpu.l1i.overallAvgMshrMissLatency::total 206334.103741                       # average overall mshr miss latency ((Tick/Count))
system.cpu.l1i.replacements                   5943467                       # number of replacements (Count)
system.cpu.l1i.HardPFReq.mshrMisses::cpu.l1i.prefetcher      4020926                       # number of HardPFReq MSHR misses (Count)
system.cpu.l1i.HardPFReq.mshrMisses::total      4020926                       # number of HardPFReq MSHR misses (Count)
system.cpu.l1i.HardPFReq.mshrMissLatency::cpu.l1i.prefetcher 850753092147                       # number of HardPFReq MSHR miss ticks (Tick)
system.cpu.l1i.HardPFReq.mshrMissLatency::total 850753092147                       # number of HardPFReq MSHR miss ticks (Tick)
system.cpu.l1i.HardPFReq.mshrMissRate::cpu.l1i.prefetcher          inf                       # mshr miss rate for HardPFReq accesses (Ratio)
system.cpu.l1i.HardPFReq.mshrMissRate::total          inf                       # mshr miss rate for HardPFReq accesses (Ratio)
system.cpu.l1i.HardPFReq.avgMshrMissLatency::cpu.l1i.prefetcher 211581.385021                       # average HardPFReq mshr miss latency ((Tick/Count))
system.cpu.l1i.HardPFReq.avgMshrMissLatency::total 211581.385021                       # average HardPFReq mshr miss latency ((Tick/Count))
system.cpu.l1i.ReadReq.hits::cpu.inst        55376671                       # number of ReadReq hits (Count)
system.cpu.l1i.ReadReq.hits::total           55376671                       # number of ReadReq hits (Count)
system.cpu.l1i.ReadReq.misses::cpu.inst       2652459                       # number of ReadReq misses (Count)
system.cpu.l1i.ReadReq.misses::total          2652459                       # number of ReadReq misses (Count)
system.cpu.l1i.ReadReq.missLatency::cpu.inst 522354594142                       # number of ReadReq miss ticks (Tick)
system.cpu.l1i.ReadReq.missLatency::total 522354594142                       # number of ReadReq miss ticks (Tick)
system.cpu.l1i.ReadReq.accesses::cpu.inst     58029130                       # number of ReadReq accesses(hits+misses) (Count)
system.cpu.l1i.ReadReq.accesses::total       58029130                       # number of ReadReq accesses(hits+misses) (Count)
system.cpu.l1i.ReadReq.missRate::cpu.inst     0.045709                       # miss rate for ReadReq accesses (Ratio)
system.cpu.l1i.ReadReq.missRate::total       0.045709                       # miss rate for ReadReq accesses (Ratio)
system.cpu.l1i.ReadReq.avgMissLatency::cpu.inst 196932.202964                       # average ReadReq miss latency ((Tick/Count))
system.cpu.l1i.ReadReq.avgMissLatency::total 196932.202964                       # average ReadReq miss latency ((Tick/Count))
system.cpu.l1i.ReadReq.mshrHits::cpu.inst       729915                       # number of ReadReq MSHR hits (Count)
system.cpu.l1i.ReadReq.mshrHits::total         729915                       # number of ReadReq MSHR hits (Count)
system.cpu.l1i.ReadReq.mshrMisses::cpu.inst      1922544                       # number of ReadReq MSHR misses (Count)
system.cpu.l1i.ReadReq.mshrMisses::total      1922544                       # number of ReadReq MSHR misses (Count)
system.cpu.l1i.ReadReq.mshrMissLatency::cpu.inst 375587463412                       # number of ReadReq MSHR miss ticks (Tick)
system.cpu.l1i.ReadReq.mshrMissLatency::total 375587463412                       # number of ReadReq MSHR miss ticks (Tick)
system.cpu.l1i.ReadReq.mshrMissRate::cpu.inst     0.033131                       # mshr miss rate for ReadReq accesses (Ratio)
system.cpu.l1i.ReadReq.mshrMissRate::total     0.033131                       # mshr miss rate for ReadReq accesses (Ratio)
system.cpu.l1i.ReadReq.avgMshrMissLatency::cpu.inst 195359.619032                       # average ReadReq mshr miss latency ((Tick/Count))
system.cpu.l1i.ReadReq.avgMshrMissLatency::total 195359.619032                       # average ReadReq mshr miss latency ((Tick/Count))
system.cpu.l1i.power_state.pwrStateResidencyTicks::UNDEFINED 1717025273295                       # Cumulative time (in ticks) in various power states (Tick)
system.cpu.l1i.prefetcher.demandMshrMisses      1922544                       # demands not covered by prefetchs (Count)
system.cpu.l1i.prefetcher.pfIssued            4396413                       # number of hwpf issued (Count)
system.cpu.l1i.prefetcher.pfUnused            1543793                       # number of HardPF blocks evicted w/o reference (Count)
system.cpu.l1i.prefetcher.pfUseful            1747217                       # number of useful prefetch (Count)
system.cpu.l1i.prefetcher.pfUsefulButMiss            0                       # number of hit on prefetch but cache block is not in an usable state (Count)
system.cpu.l1i.prefetcher.accuracy           0.397419                       # accuracy of the prefetcher (Count)
system.cpu.l1i.prefetcher.coverage           0.476112                       # coverage brought by this prefetcher (Count)
system.cpu.l1i.prefetcher.pfHitInCache         375258                       # number of prefetches hitting in cache (Count)
system.cpu.l1i.prefetcher.pfHitInMSHR               0                       # number of prefetches hitting in a MSHR (Count)
system.cpu.l1i.prefetcher.pfHitInWB               229                       # number of prefetches hit in the Write Buffer (Count)
system.cpu.l1i.prefetcher.pfLate               375487                       # number of late prefetches (hitting in cache, MSHR or WB) (Count)
system.cpu.l1i.prefetcher.pfIdentified        4396414                       # number of prefetch candidates identified (Count)
system.cpu.l1i.prefetcher.pfBufferHit               0                       # number of redundant prefetches already in prefetch queue (Count)
system.cpu.l1i.prefetcher.pfInCache                 0                       # number of redundant prefetches already in cache/mshr dropped (Count)
system.cpu.l1i.prefetcher.pfRemovedDemand            1                       # number of prefetches dropped due to a demand for the same address (Count)
system.cpu.l1i.prefetcher.pfRemovedFull             0                       # number of prefetches dropped due to prefetch queue size (Count)
system.cpu.l1i.prefetcher.pfSpanPage             3262                       # number of prefetches that crossed the page (Count)
system.cpu.l1i.prefetcher.pfUsefulSpanPage          704                       # number of prefetches that is useful and crossed the page (Count)
system.cpu.l1i.prefetcher.power_state.pwrStateResidencyTicks::UNDEFINED 1717025273295                       # Cumulative time (in ticks) in various power states (Tick)
system.cpu.l1i.tags.tagsInUse                2.000000                       # Average ticks per tags in use ((Tick/Count))
system.cpu.l1i.tags.totalRefs                61320137                       # Total number of references to valid blocks. (Count)
system.cpu.l1i.tags.sampledRefs               5943467                       # Sample count of references to valid blocks. (Count)
system.cpu.l1i.tags.avgRefs                 10.317234                       # Average number of references to valid blocks. ((Count/Count))
system.cpu.l1i.tags.warmupTick                 199995                       # The tick when the warmup percentage was hit. (Tick)
system.cpu.l1i.tags.occupancies::cpu.inst     0.621381                       # Average occupied blocks per tick, per requestor ((Count/Tick))
system.cpu.l1i.tags.occupancies::cpu.l1i.prefetcher     1.378619                       # Average occupied blocks per tick, per requestor ((Count/Tick))
system.cpu.l1i.tags.avgOccs::cpu.inst        0.310691                       # Average percentage of cache occupancy ((Ratio/Tick))
system.cpu.l1i.tags.avgOccs::cpu.l1i.prefetcher     0.689309                       # Average percentage of cache occupancy ((Ratio/Tick))
system.cpu.l1i.tags.avgOccs::total           1.000000                       # Average percentage of cache occupancy ((Ratio/Tick))
system.cpu.l1i.tags.occupanciesTaskId::1022            1                       # Occupied blocks per task id (Count)
system.cpu.l1i.tags.occupanciesTaskId::1024            1                       # Occupied blocks per task id (Count)
system.cpu.l1i.tags.ageTaskId_1022::0               1                       # Occupied blocks per task id, per block age (Count)
system.cpu.l1i.tags.ageTaskId_1024::0               1                       # Occupied blocks per task id, per block age (Count)
system.cpu.l1i.tags.ratioOccsTaskId::1022     0.500000                       # Ratio of occupied blocks and all blocks, per task id (Ratio)
system.cpu.l1i.tags.ratioOccsTaskId::1024     0.500000                       # Ratio of occupied blocks and all blocks, per task id (Ratio)
system.cpu.l1i.tags.tagAccesses             122001729                       # Number of tag accesses (Count)
system.cpu.l1i.tags.dataAccesses            122001729                       # Number of data accesses (Count)
system.cpu.l1i.tags.power_state.pwrStateResidencyTicks::UNDEFINED 1717025273295                       # Cumulative time (in ticks) in various power states (Tick)
system.cpu.mmu.dtb.rdAccesses                11868860                       # TLB accesses on read requests (Count)
system.cpu.mmu.dtb.wrAccesses                 3028989                       # TLB accesses on write requests (Count)
system.cpu.mmu.dtb.rdMisses                      3897                       # TLB misses on read requests (Count)
system.cpu.mmu.dtb.wrMisses                      1225                       # TLB misses on write requests (Count)
system.cpu.mmu.dtb.walker.power_state.pwrStateResidencyTicks::UNDEFINED 1717025273295                       # Cumulative time (in ticks) in various power states (Tick)
system.cpu.mmu.itb.rdAccesses                       0                       # TLB accesses on read requests (Count)
system.cpu.mmu.itb.wrAccesses                58029272                       # TLB accesses on write requests (Count)
system.cpu.mmu.itb.rdMisses                         0                       # TLB misses on read requests (Count)
system.cpu.mmu.itb.wrMisses                       564                       # TLB misses on write requests (Count)
system.cpu.mmu.itb.walker.power_state.pwrStateResidencyTicks::UNDEFINED 1717025273295                       # Cumulative time (in ticks) in various power states (Tick)
system.cpu.power_state.pwrStateResidencyTicks::ON 1717025273295                       # Cumulative time (in ticks) in various power states (Tick)
system.cpu.thread_0.numInsts                        0                       # Number of Instructions committed (Count)
system.cpu.thread_0.numOps                          0                       # Number of Ops committed (Count)
system.cpu.thread_0.numMemRefs                      0                       # Number of Memory References (Count)
system.cpu.workload.numSyscalls                   163                       # Number of system calls (Count)
system.mem_ctrl.avgPriority_writebacks::samples    180727.00                       # Average QoS priority value for accepted requests (Count)
system.mem_ctrl.avgPriority_cpu.inst::samples   1922544.00                       # Average QoS priority value for accepted requests (Count)
system.mem_ctrl.avgPriority_cpu.data::samples    741220.00                       # Average QoS priority value for accepted requests (Count)
system.mem_ctrl.avgPriority_cpu.l1d.prefetcher::samples    738614.00                       # Average QoS priority value for accepted requests (Count)
system.mem_ctrl.avgPriority_cpu.l1i.prefetcher::samples   4020926.00                       # Average QoS priority value for accepted requests (Count)
system.mem_ctrl.priorityMinLatency       0.000000018750                       # per QoS priority minimum request to response latency (Second)
system.mem_ctrl.priorityMaxLatency       0.062257356028                       # per QoS priority maximum request to response latency (Second)
system.mem_ctrl.numReadWriteTurnArounds         10147                       # Number of turnarounds from READ to WRITE (Count)
system.mem_ctrl.numWriteReadTurnArounds         10147                       # Number of turnarounds from WRITE to READ (Count)
system.mem_ctrl.numStayReadState             15520166                       # Number of times bus staying in READ state (Count)
system.mem_ctrl.numStayWriteState              170854                       # Number of times bus staying in WRITE state (Count)
system.mem_ctrl.readReqs                      7592757                       # Number of read requests accepted (Count)
system.mem_ctrl.writeReqs                      240039                       # Number of write requests accepted (Count)
system.mem_ctrl.readBursts                    7592757                       # Number of controller read bursts, including those serviced by the write queue (Count)
system.mem_ctrl.writeBursts                    240039                       # Number of controller write bursts, including those merged in the write queue (Count)
system.mem_ctrl.servicedByWrQ                  169453                       # Number of controller read bursts serviced by the write queue (Count)
system.mem_ctrl.mergedWrBursts                  59312                       # Number of controller write bursts merged with an existing one (Count)
system.mem_ctrl.neitherReadNorWriteReqs             0                       # Number of requests that are neither read nor write (Count)
system.mem_ctrl.avgRdQLen                        1.44                       # Average read queue length when enqueuing ((Count/Tick))
system.mem_ctrl.avgWrQLen                       25.04                       # Average write queue length when enqueuing ((Count/Tick))
system.mem_ctrl.numRdRetry                          0                       # Number of times read queue was full causing retry (Count)
system.mem_ctrl.numWrRetry                          0                       # Number of times write queue was full causing retry (Count)
system.mem_ctrl.readPktSize::0                      0                       # Read request sizes (log2) (Count)
system.mem_ctrl.readPktSize::1                      0                       # Read request sizes (log2) (Count)
system.mem_ctrl.readPktSize::2                      0                       # Read request sizes (log2) (Count)
system.mem_ctrl.readPktSize::3                      0                       # Read request sizes (log2) (Count)
system.mem_ctrl.readPktSize::4                      0                       # Read request sizes (log2) (Count)
system.mem_ctrl.readPktSize::5                      0                       # Read request sizes (log2) (Count)
system.mem_ctrl.readPktSize::6                7592757                       # Read request sizes (log2) (Count)
system.mem_ctrl.writePktSize::0                     0                       # Write request sizes (log2) (Count)
system.mem_ctrl.writePktSize::1                     0                       # Write request sizes (log2) (Count)
system.mem_ctrl.writePktSize::2                     0                       # Write request sizes (log2) (Count)
system.mem_ctrl.writePktSize::3                     0                       # Write request sizes (log2) (Count)
system.mem_ctrl.writePktSize::4                     0                       # Write request sizes (log2) (Count)
system.mem_ctrl.writePktSize::5                     0                       # Write request sizes (log2) (Count)
system.mem_ctrl.writePktSize::6                240039                       # Write request sizes (log2) (Count)
system.mem_ctrl.rdQLenPdf::0                  5254547                       # What read queue length does an incoming req see (Count)
system.mem_ctrl.rdQLenPdf::1                  2155251                       # What read queue length does an incoming req see (Count)
system.mem_ctrl.rdQLenPdf::2                    13266                       # What read queue length does an incoming req see (Count)
system.mem_ctrl.rdQLenPdf::3                      240                       # What read queue length does an incoming req see (Count)
system.mem_ctrl.rdQLenPdf::4                        0                       # What read queue length does an incoming req see (Count)
system.mem_ctrl.rdQLenPdf::5                        0                       # What read queue length does an incoming req see (Count)
system.mem_ctrl.rdQLenPdf::6                        0                       # What read queue length does an incoming req see (Count)
system.mem_ctrl.rdQLenPdf::7                        0                       # What read queue length does an incoming req see (Count)
system.mem_ctrl.rdQLenPdf::8                        0                       # What read queue length does an incoming req see (Count)
system.mem_ctrl.rdQLenPdf::9                        0                       # What read queue length does an incoming req see (Count)
system.mem_ctrl.rdQLenPdf::10                       0                       # What read queue length does an incoming req see (Count)
system.mem_ctrl.rdQLenPdf::11                       0                       # What read queue length does an incoming req see (Count)
system.mem_ctrl.rdQLenPdf::12                       0                       # What read queue length does an incoming req see (Count)
system.mem_ctrl.rdQLenPdf::13                       0                       # What read queue length does an incoming req see (Count)
system.mem_ctrl.rdQLenPdf::14                       0                       # What read queue length does an incoming req see (Count)
system.mem_ctrl.rdQLenPdf::15                       0                       # What read queue length does an incoming req see (Count)
system.mem_ctrl.rdQLenPdf::16                       0                       # What read queue length does an incoming req see (Count)
system.mem_ctrl.rdQLenPdf::17                       0                       # What read queue length does an incoming req see (Count)
system.mem_ctrl.rdQLenPdf::18                       0                       # What read queue length does an incoming req see (Count)
system.mem_ctrl.rdQLenPdf::19                       0                       # What read queue length does an incoming req see (Count)
system.mem_ctrl.rdQLenPdf::20                       0                       # What read queue length does an incoming req see (Count)
system.mem_ctrl.rdQLenPdf::21                       0                       # What read queue length does an incoming req see (Count)
system.mem_ctrl.rdQLenPdf::22                       0                       # What read queue length does an incoming req see (Count)
system.mem_ctrl.rdQLenPdf::23                       0                       # What read queue length does an incoming req see (Count)
system.mem_ctrl.rdQLenPdf::24                       0                       # What read queue length does an incoming req see (Count)
system.mem_ctrl.rdQLenPdf::25                       0                       # What read queue length does an incoming req see (Count)
system.mem_ctrl.rdQLenPdf::26                       0                       # What read queue length does an incoming req see (Count)
system.mem_ctrl.rdQLenPdf::27                       0                       # What read queue length does an incoming req see (Count)
system.mem_ctrl.rdQLenPdf::28                       0                       # What read queue length does an incoming req see (Count)
system.mem_ctrl.rdQLenPdf::29                       0                       # What read queue length does an incoming req see (Count)
system.mem_ctrl.rdQLenPdf::30                       0                       # What read queue length does an incoming req see (Count)
system.mem_ctrl.rdQLenPdf::31                       0                       # What read queue length does an incoming req see (Count)
system.mem_ctrl.wrQLenPdf::0                        1                       # What write queue length does an incoming req see (Count)
system.mem_ctrl.wrQLenPdf::1                        1                       # What write queue length does an incoming req see (Count)
system.mem_ctrl.wrQLenPdf::2                        1                       # What write queue length does an incoming req see (Count)
system.mem_ctrl.wrQLenPdf::3                        1                       # What write queue length does an incoming req see (Count)
system.mem_ctrl.wrQLenPdf::4                        1                       # What write queue length does an incoming req see (Count)
system.mem_ctrl.wrQLenPdf::5                        1                       # What write queue length does an incoming req see (Count)
system.mem_ctrl.wrQLenPdf::6                        1                       # What write queue length does an incoming req see (Count)
system.mem_ctrl.wrQLenPdf::7                        1                       # What write queue length does an incoming req see (Count)
system.mem_ctrl.wrQLenPdf::8                        1                       # What write queue length does an incoming req see (Count)
system.mem_ctrl.wrQLenPdf::9                        1                       # What write queue length does an incoming req see (Count)
system.mem_ctrl.wrQLenPdf::10                       1                       # What write queue length does an incoming req see (Count)
system.mem_ctrl.wrQLenPdf::11                       1                       # What write queue length does an incoming req see (Count)
system.mem_ctrl.wrQLenPdf::12                       1                       # What write queue length does an incoming req see (Count)
system.mem_ctrl.wrQLenPdf::13                       1                       # What write queue length does an incoming req see (Count)
system.mem_ctrl.wrQLenPdf::14                       1                       # What write queue length does an incoming req see (Count)
system.mem_ctrl.wrQLenPdf::15                    8875                       # What write queue length does an incoming req see (Count)
system.mem_ctrl.wrQLenPdf::16                    9272                       # What write queue length does an incoming req see (Count)
system.mem_ctrl.wrQLenPdf::17                   10120                       # What write queue length does an incoming req see (Count)
system.mem_ctrl.wrQLenPdf::18                   10192                       # What write queue length does an incoming req see (Count)
system.mem_ctrl.wrQLenPdf::19                   10209                       # What write queue length does an incoming req see (Count)
system.mem_ctrl.wrQLenPdf::20                   10188                       # What write queue length does an incoming req see (Count)
system.mem_ctrl.wrQLenPdf::21                   10177                       # What write queue length does an incoming req see (Count)
system.mem_ctrl.wrQLenPdf::22                   10161                       # What write queue length does an incoming req see (Count)
system.mem_ctrl.wrQLenPdf::23                   10157                       # What write queue length does an incoming req see (Count)
system.mem_ctrl.wrQLenPdf::24                   10153                       # What write queue length does an incoming req see (Count)
system.mem_ctrl.wrQLenPdf::25                   10150                       # What write queue length does an incoming req see (Count)
system.mem_ctrl.wrQLenPdf::26                   10149                       # What write queue length does an incoming req see (Count)
system.mem_ctrl.wrQLenPdf::27                   10148                       # What write queue length does an incoming req see (Count)
system.mem_ctrl.wrQLenPdf::28                   10149                       # What write queue length does an incoming req see (Count)
system.mem_ctrl.wrQLenPdf::29                   10148                       # What write queue length does an incoming req see (Count)
system.mem_ctrl.wrQLenPdf::30                   10147                       # What write queue length does an incoming req see (Count)
system.mem_ctrl.wrQLenPdf::31                   10147                       # What write queue length does an incoming req see (Count)
system.mem_ctrl.wrQLenPdf::32                   10147                       # What write queue length does an incoming req see (Count)
system.mem_ctrl.wrQLenPdf::33                      23                       # What write queue length does an incoming req see (Count)
system.mem_ctrl.wrQLenPdf::34                       0                       # What write queue length does an incoming req see (Count)
system.mem_ctrl.wrQLenPdf::35                       0                       # What write queue length does an incoming req see (Count)
system.mem_ctrl.wrQLenPdf::36                       0                       # What write queue length does an incoming req see (Count)
system.mem_ctrl.wrQLenPdf::37                       0                       # What write queue length does an incoming req see (Count)
system.mem_ctrl.wrQLenPdf::38                       0                       # What write queue length does an incoming req see (Count)
system.mem_ctrl.wrQLenPdf::39                       0                       # What write queue length does an incoming req see (Count)
system.mem_ctrl.wrQLenPdf::40                       0                       # What write queue length does an incoming req see (Count)
system.mem_ctrl.wrQLenPdf::41                       0                       # What write queue length does an incoming req see (Count)
system.mem_ctrl.wrQLenPdf::42                       0                       # What write queue length does an incoming req see (Count)
system.mem_ctrl.wrQLenPdf::43                       0                       # What write queue length does an incoming req see (Count)
system.mem_ctrl.wrQLenPdf::44                       0                       # What write queue length does an incoming req see (Count)
system.mem_ctrl.wrQLenPdf::45                       0                       # What write queue length does an incoming req see (Count)
system.mem_ctrl.wrQLenPdf::46                       0                       # What write queue length does an incoming req see (Count)
system.mem_ctrl.wrQLenPdf::47                       0                       # What write queue length does an incoming req see (Count)
system.mem_ctrl.wrQLenPdf::48                       0                       # What write queue length does an incoming req see (Count)
system.mem_ctrl.wrQLenPdf::49                       0                       # What write queue length does an incoming req see (Count)
system.mem_ctrl.wrQLenPdf::50                       0                       # What write queue length does an incoming req see (Count)
system.mem_ctrl.wrQLenPdf::51                       0                       # What write queue length does an incoming req see (Count)
system.mem_ctrl.wrQLenPdf::52                       0                       # What write queue length does an incoming req see (Count)
system.mem_ctrl.wrQLenPdf::53                       0                       # What write queue length does an incoming req see (Count)
system.mem_ctrl.wrQLenPdf::54                       0                       # What write queue length does an incoming req see (Count)
system.mem_ctrl.wrQLenPdf::55                       0                       # What write queue length does an incoming req see (Count)
system.mem_ctrl.wrQLenPdf::56                       0                       # What write queue length does an incoming req see (Count)
system.mem_ctrl.wrQLenPdf::57                       0                       # What write queue length does an incoming req see (Count)
system.mem_ctrl.wrQLenPdf::58                       0                       # What write queue length does an incoming req see (Count)
system.mem_ctrl.wrQLenPdf::59                       0                       # What write queue length does an incoming req see (Count)
system.mem_ctrl.wrQLenPdf::60                       0                       # What write queue length does an incoming req see (Count)
system.mem_ctrl.wrQLenPdf::61                       0                       # What write queue length does an incoming req see (Count)
system.mem_ctrl.wrQLenPdf::62                       0                       # What write queue length does an incoming req see (Count)
system.mem_ctrl.wrQLenPdf::63                       0                       # What write queue length does an incoming req see (Count)
system.mem_ctrl.rdPerTurnAround::samples        10147                       # Reads before turning the bus around for writes (Count)
system.mem_ctrl.rdPerTurnAround::mean      731.539568                       # Reads before turning the bus around for writes (Count)
system.mem_ctrl.rdPerTurnAround::gmean     146.886523                       # Reads before turning the bus around for writes (Count)
system.mem_ctrl.rdPerTurnAround::stdev    5590.228533                       # Reads before turning the bus around for writes (Count)
system.mem_ctrl.rdPerTurnAround::0-8191         10077     99.31%     99.31% # Reads before turning the bus around for writes (Count)
system.mem_ctrl.rdPerTurnAround::8192-16383           25      0.25%     99.56% # Reads before turning the bus around for writes (Count)
system.mem_ctrl.rdPerTurnAround::16384-24575            4      0.04%     99.60% # Reads before turning the bus around for writes (Count)
system.mem_ctrl.rdPerTurnAround::24576-32767            6      0.06%     99.66% # Reads before turning the bus around for writes (Count)
system.mem_ctrl.rdPerTurnAround::32768-40959            5      0.05%     99.70% # Reads before turning the bus around for writes (Count)
system.mem_ctrl.rdPerTurnAround::40960-49151            7      0.07%     99.77% # Reads before turning the bus around for writes (Count)
system.mem_ctrl.rdPerTurnAround::49152-57343            2      0.02%     99.79% # Reads before turning the bus around for writes (Count)
system.mem_ctrl.rdPerTurnAround::57344-65535            1      0.01%     99.80% # Reads before turning the bus around for writes (Count)
system.mem_ctrl.rdPerTurnAround::90112-98303            8      0.08%     99.88% # Reads before turning the bus around for writes (Count)
system.mem_ctrl.rdPerTurnAround::114688-122879            4      0.04%     99.92% # Reads before turning the bus around for writes (Count)
system.mem_ctrl.rdPerTurnAround::131072-139263            6      0.06%     99.98% # Reads before turning the bus around for writes (Count)
system.mem_ctrl.rdPerTurnAround::139264-147455            2      0.02%    100.00% # Reads before turning the bus around for writes (Count)
system.mem_ctrl.rdPerTurnAround::total          10147                       # Reads before turning the bus around for writes (Count)
system.mem_ctrl.wrPerTurnAround::samples        10147                       # Writes before turning the bus around for reads (Count)
system.mem_ctrl.wrPerTurnAround::mean       17.807924                       # Writes before turning the bus around for reads (Count)
system.mem_ctrl.wrPerTurnAround::gmean      17.796208                       # Writes before turning the bus around for reads (Count)
system.mem_ctrl.wrPerTurnAround::stdev       0.629350                       # Writes before turning the bus around for reads (Count)
system.mem_ctrl.wrPerTurnAround::16               957      9.43%      9.43% # Writes before turning the bus around for reads (Count)
system.mem_ctrl.wrPerTurnAround::17               298      2.94%     12.37% # Writes before turning the bus around for reads (Count)
system.mem_ctrl.wrPerTurnAround::18              8631     85.06%     97.43% # Writes before turning the bus around for reads (Count)
system.mem_ctrl.wrPerTurnAround::19               259      2.55%     99.98% # Writes before turning the bus around for reads (Count)
[...]
system.mem_ctrl.dram.bwInstRead::total       75750310                       # Instruction read bandwidth from this memory ((Byte/Second))
system.mem_ctrl.dram.bwWrite::writebacks     22455337                       # Write bandwidth from this memory ((Byte/Second))
system.mem_ctrl.dram.bwWrite::total          22455337                       # Write bandwidth from this memory ((Byte/Second))
system.mem_ctrl.dram.bwTotal::writebacks     22455337                       # Total bandwidth to/from this memory ((Byte/Second))
system.mem_ctrl.dram.bwTotal::cpu.inst       75750310                       # Total bandwidth to/from this memory ((Byte/Second))
system.mem_ctrl.dram.bwTotal::cpu.data       60403400                       # Total bandwidth to/from this memory ((Byte/Second))
system.mem_ctrl.dram.bwTotal::cpu.l1d.prefetcher     55591542                       # Total bandwidth to/from this memory ((Byte/Second))
system.mem_ctrl.dram.bwTotal::cpu.l1i.prefetcher    142788241                       # Total bandwidth to/from this memory ((Byte/Second))
system.mem_ctrl.dram.bwTotal::total         356988830                       # Total bandwidth to/from this memory ((Byte/Second))
system.mem_ctrl.dram.readBursts                  8823                       # Number of DRAM read bursts (Count)
system.mem_ctrl.dram.writeBursts                  461                       # Number of DRAM write bursts (Count)
system.mem_ctrl.dram.perBankRdBursts::0          1096                       # Per bank write bursts (Count)
system.mem_ctrl.dram.perBankRdBursts::1           873                       # Per bank write bursts (Count)
system.mem_ctrl.dram.perBankRdBursts::2           298                       # Per bank write bursts (Count)
system.mem_ctrl.dram.perBankRdBursts::3          1308                       # Per bank write bursts (Count)
system.mem_ctrl.dram.perBankRdBursts::4           570                       # Per bank write bursts (Count)
system.mem_ctrl.dram.perBankRdBursts::5           764                       # Per bank write bursts (Count)
system.mem_ctrl.dram.perBankRdBursts::6           415                       # Per bank write bursts (Count)
system.mem_ctrl.dram.perBankRdBursts::7           601                       # Per bank write bursts (Count)
system.mem_ctrl.dram.perBankRdBursts::8           707                       # Per bank write bursts (Count)
system.mem_ctrl.dram.perBankRdBursts::9           608                       # Per bank write bursts (Count)
system.mem_ctrl.dram.perBankRdBursts::10          150                       # Per bank write bursts (Count)
system.mem_ctrl.dram.perBankRdBursts::11          201                       # Per bank write bursts (Count)
system.mem_ctrl.dram.perBankRdBursts::12           72                       # Per bank write bursts (Count)
system.mem_ctrl.dram.perBankRdBursts::13          233                       # Per bank write bursts (Count)
system.mem_ctrl.dram.perBankRdBursts::14          537                       # Per bank write bursts (Count)
system.mem_ctrl.dram.perBankRdBursts::15          390                       # Per bank write bursts (Count)
system.mem_ctrl.dram.perBankWrBursts::0             7                       # Per bank write bursts (Count)
system.mem_ctrl.dram.perBankWrBursts::1            21                       # Per bank write bursts (Count)
system.mem_ctrl.dram.perBankWrBursts::2             0                       # Per bank write bursts (Count)
system.mem_ctrl.dram.perBankWrBursts::3             0                       # Per bank write bursts (Count)
system.mem_ctrl.dram.perBankWrBursts::4            34                       # Per bank write bursts (Count)
system.mem_ctrl.dram.perBankWrBursts::5            46                       # Per bank write bursts (Count)
system.mem_ctrl.dram.perBankWrBursts::6            59                       # Per bank write bursts (Count)
system.mem_ctrl.dram.perBankWrBursts::7            16                       # Per bank write bursts (Count)
system.mem_ctrl.dram.perBankWrBursts::8           213                       # Per bank write bursts (Count)
system.mem_ctrl.dram.perBankWrBursts::9            10                       # Per bank write bursts (Count)
system.mem_ctrl.dram.perBankWrBursts::10           20                       # Per bank write bursts (Count)
system.mem_ctrl.dram.perBankWrBursts::11            3                       # Per bank write bursts (Count)
system.mem_ctrl.dram.perBankWrBursts::12            0                       # Per bank write bursts (Count)
system.mem_ctrl.dram.perBankWrBursts::13            7                       # Per bank write bursts (Count)
system.mem_ctrl.dram.perBankWrBursts::14           23                       # Per bank write bursts (Count)
system.mem_ctrl.dram.perBankWrBursts::15            2                       # Per bank write bursts (Count)
system.mem_ctrl.dram.totQLat                107426323                       # Total ticks spent queuing (Tick)
system.mem_ctrl.dram.totBusLat               44115000                       # Total ticks spent in databus transfers (Tick)
system.mem_ctrl.dram.totMemAccLat           272857573                       # Total ticks spent from burst creation until serviced by the DRAM (Tick)
system.mem_ctrl.dram.avgQLat                 12175.71                       # Average queueing delay per DRAM burst ((Tick/Count))
system.mem_ctrl.dram.avgBusLat                5000.00                       # Average bus latency per DRAM burst ((Tick/Count))
system.mem_ctrl.dram.avgMemAccLat            30925.71                       # Average memory access latency per DRAM burst ((Tick/Count))
system.mem_ctrl.dram.readRowHits                 6476                       # Number of row buffer hits during reads (Count)
system.mem_ctrl.dram.writeRowHits                 353                       # Number of row buffer hits during writes (Count)
system.mem_ctrl.dram.readRowHitRate             73.40                       # Row buffer hit rate for reads (Ratio)
system.mem_ctrl.dram.writeRowHitRate            76.57                       # Row buffer hit rate for writes (Ratio)
system.mem_ctrl.dram.bytesPerActivate::samples         2459                       # Bytes accessed per row activation (Byte)
system.mem_ctrl.dram.bytesPerActivate::mean   242.231802                       # Bytes accessed per row activation (Byte)
system.mem_ctrl.dram.bytesPerActivate::gmean   182.206102                       # Bytes accessed per row activation (Byte)
system.mem_ctrl.dram.bytesPerActivate::stdev   220.047225                       # Bytes accessed per row activation (Byte)
system.mem_ctrl.dram.bytesPerActivate::0-127          331     13.46%     13.46% # Bytes accessed per row activation (Byte)
system.mem_ctrl.dram.bytesPerActivate::128-255         1306     53.11%     66.57% # Bytes accessed per row activation (Byte)
system.mem_ctrl.dram.bytesPerActivate::256-383          363     14.76%     81.33% # Bytes accessed per row activation (Byte)
system.mem_ctrl.dram.bytesPerActivate::384-511          177      7.20%     88.53% # Bytes accessed per row activation (Byte)
system.mem_ctrl.dram.bytesPerActivate::512-639           95      3.86%     92.40% # Bytes accessed per row activation (Byte)
system.mem_ctrl.dram.bytesPerActivate::640-767           47      1.91%     94.31% # Bytes accessed per row activation (Byte)
system.mem_ctrl.dram.bytesPerActivate::768-895           30      1.22%     95.53% # Bytes accessed per row activation (Byte)
system.mem_ctrl.dram.bytesPerActivate::896-1023           28      1.14%     96.67% # Bytes accessed per row activation (Byte)
system.mem_ctrl.dram.bytesPerActivate::1024-1151           82      3.33%    100.00% # Bytes accessed per row activation (Byte)
system.mem_ctrl.dram.bytesPerActivate::total         2459                       # Bytes accessed per row activation (Byte)
system.mem_ctrl.dram.dramBytesRead             564672                       # Total bytes read (Byte)
system.mem_ctrl.dram.dramBytesWritten           29504                       # Total bytes written (Byte)
system.mem_ctrl.dram.avgRdBW               321.628964                       # Average DRAM read bandwidth in MiBytes/s ((Byte/Second))
system.mem_ctrl.dram.avgWrBW                16.805050                       # Average DRAM write bandwidth in MiBytes/s ((Byte/Second))
system.mem_ctrl.dram.peakBW                  12800.00                       # Theoretical peak bandwidth in MiByte/s ((Byte/Second))
system.mem_ctrl.dram.busUtil                     2.64                       # Data bus utilization in percentage (Ratio)
system.mem_ctrl.dram.busUtilRead                 2.51                       # Data bus utilization in percentage for reads (Ratio)
system.mem_ctrl.dram.busUtilWrite                0.13                       # Data bus utilization in percentage for writes (Ratio)
system.mem_ctrl.dram.pageHitRate                73.56                       # Row buffer hit rate, read and write combined (Ratio)
system.mem_ctrl.dram.power_state.pwrStateResidencyTicks::UNDEFINED   1755662774                       # Cumulative time (in ticks) in various power states (Tick)
system.mem_ctrl.dram.rank0.actEnergy         10674300                       # Energy for activate commands per rank (pJ) (Joule)
system.mem_ctrl.dram.rank0.preEnergy          5684910                       # Energy for precharge commands per rank (pJ) (Joule)
system.mem_ctrl.dram.rank0.readEnergy        42304500                       # Energy for read commands per rank (pJ) (Joule)
system.mem_ctrl.dram.rank0.writeEnergy         955260                       # Energy for write commands per rank (pJ) (Joule)
system.mem_ctrl.dram.rank0.refreshEnergy 138908640.000000                       # Energy for refresh commands per rank (pJ) (Joule)
system.mem_ctrl.dram.rank0.actBackEnergy    753090270                       # Energy for active background per rank (pJ) (Joule)
system.mem_ctrl.dram.rank0.preBackEnergy     39993600                       # Energy for precharge background per rank (pJ) (Joule)
system.mem_ctrl.dram.rank0.actPowerDownEnergy            0                       # Energy for active power-down per rank (pJ) (Joule)
system.mem_ctrl.dram.rank0.prePowerDownEnergy            0                       # Energy for precharge power-down per rank (pJ) (Joule)
system.mem_ctrl.dram.rank0.selfRefreshEnergy            0                       # Energy for self refresh per rank (pJ) (Joule)
system.mem_ctrl.dram.rank0.totalEnergy      991611480                       # Total energy per rank (pJ) (Joule)
system.mem_ctrl.dram.rank0.averagePower    564.807487                       # Core power per rank (mW) (Watt)
system.mem_ctrl.dram.rank0.totalIdleTime            0                       # Total Idle time Per DRAM Rank (Tick)
system.mem_ctrl.dram.rank0.pwrStateTime::IDLE     97513988                       # Time in different power states (Tick)
system.mem_ctrl.dram.rank0.pwrStateTime::REF     58760000                       # Time in different power states (Tick)
system.mem_ctrl.dram.rank0.pwrStateTime::SREF            0                       # Time in different power states (Tick)
system.mem_ctrl.dram.rank0.pwrStateTime::PRE_PDN            0                       # Time in different power states (Tick)
system.mem_ctrl.dram.rank0.pwrStateTime::ACT   1599388786                       # Time in different power states (Tick)
system.mem_ctrl.dram.rank0.pwrStateTime::ACT_PDN            0                       # Time in different power states (Tick)
system.mem_ctrl.dram.rank1.actEnergy          6854400                       # Energy for activate commands per rank (pJ) (Joule)
system.mem_ctrl.dram.rank1.preEnergy          3646995                       # Energy for precharge commands per rank (pJ) (Joule)
system.mem_ctrl.dram.rank1.readEnergy        20691720                       # Energy for read commands per rank (pJ) (Joule)
system.mem_ctrl.dram.rank1.writeEnergy        1451160                       # Energy for write commands per rank (pJ) (Joule)
system.mem_ctrl.dram.rank1.refreshEnergy 138908640.000000                       # Energy for refresh commands per rank (pJ) (Joule)
system.mem_ctrl.dram.rank1.actBackEnergy    649918560                       # Energy for active background per rank (pJ) (Joule)
system.mem_ctrl.dram.rank1.preBackEnergy    126875040                       # Energy for precharge background per rank (pJ) (Joule)
system.mem_ctrl.dram.rank1.actPowerDownEnergy            0                       # Energy for active power-down per rank (pJ) (Joule)
system.mem_ctrl.dram.rank1.prePowerDownEnergy            0                       # Energy for precharge power-down per rank (pJ) (Joule)
system.mem_ctrl.dram.rank1.selfRefreshEnergy            0                       # Energy for self refresh per rank (pJ) (Joule)
system.mem_ctrl.dram.rank1.totalEnergy      948346515                       # Total energy per rank (pJ) (Joule)
system.mem_ctrl.dram.rank1.averagePower    540.164392                       # Core power per rank (mW) (Watt)
system.mem_ctrl.dram.rank1.totalIdleTime            0                       # Total Idle time Per DRAM Rank (Tick)
system.mem_ctrl.dram.rank1.pwrStateTime::IDLE    323771010                       # Time in different power states (Tick)
system.mem_ctrl.dram.rank1.pwrStateTime::REF     58760000                       # Time in different power states (Tick)
system.mem_ctrl.dram.rank1.pwrStateTime::SREF            0                       # Time in different power states (Tick)
system.mem_ctrl.dram.rank1.pwrStateTime::PRE_PDN            0                       # Time in different power states (Tick)
system.mem_ctrl.dram.rank1.pwrStateTime::ACT   1373131764                       # Time in different power states (Tick)
system.mem_ctrl.dram.rank1.pwrStateTime::ACT_PDN            0                       # Time in different power states (Tick)
system.mem_ctrl.power_state.pwrStateResidencyTicks::UNDEFINED   1755662774                       # Cumulative time (in ticks) in various power states (Tick)
system.membus.transDist::ReadResp                8959                       # Transaction distribution (Count)
system.membus.transDist::WritebackDirty           616                       # Transaction distribution (Count)
system.membus.transDist::CleanEvict              8562                       # Transaction distribution (Count)
system.membus.transDist::ReadExReq                219                       # Transaction distribution (Count)
system.membus.transDist::ReadExResp               219                       # Transaction distribution (Count)
system.membus.transDist::ReadSharedReq           8958                       # Transaction distribution (Count)
system.membus.pktCount_system.cpu.l1d.mem_side_port::system.mem_ctrl.port         9546                       # Packet count per connected requestor and responder (Count)
system.membus.pktCount_system.cpu.l1d.mem_side_port::total         9546                       # Packet count per connected requestor and responder (Count)
system.membus.pktCount_system.cpu.l1i.mem_side_port::system.mem_ctrl.port        17987                       # Packet count per connected requestor and responder (Count)
system.membus.pktCount_system.cpu.l1i.mem_side_port::total        17987                       # Packet count per connected requestor and responder (Count)
system.membus.pktCount::total                   27533                       # Packet count per connected requestor and responder (Count)
system.membus.pktSize_system.cpu.l1d.mem_side_port::system.mem_ctrl.port       243072                       # Cumulative packet size per connected requestor and responder (Byte)
system.membus.pktSize_system.cpu.l1d.mem_side_port::total       243072                       # Cumulative packet size per connected requestor and responder (Byte)
system.membus.pktSize_system.cpu.l1i.mem_side_port::system.mem_ctrl.port       383744                       # Cumulative packet size per connected requestor and responder (Byte)
system.membus.pktSize_system.cpu.l1i.mem_side_port::total       383744                       # Cumulative packet size per connected requestor and responder (Byte)
system.membus.pktSize::total                   626816                       # Cumulative packet size per connected requestor and responder (Byte)
system.membus.snoops                                0                       # Total snoops (Count)
system.membus.snoopTraffic                          0                       # Total snoop traffic (Byte)
system.membus.snoopFanout::samples               9177                       # Request fanout histogram (Count)
system.membus.snoopFanout::mean                     0                       # Request fanout histogram (Count)
system.membus.snoopFanout::stdev                    0                       # Request fanout histogram (Count)
system.membus.snoopFanout::underflows               0      0.00%      0.00% # Request fanout histogram (Count)
system.membus.snoopFanout::0                     9177    100.00%    100.00% # Request fanout histogram (Count)
system.membus.snoopFanout::1                        0      0.00%    100.00% # Request fanout histogram (Count)
system.membus.snoopFanout::2                        0      0.00%    100.00% # Request fanout histogram (Count)
system.membus.snoopFanout::overflows                0      0.00%    100.00% # Request fanout histogram (Count)
system.membus.snoopFanout::min_value                0                       # Request fanout histogram (Count)
system.membus.snoopFanout::max_value                0                       # Request fanout histogram (Count)
system.membus.snoopFanout::total                 9177                       # Request fanout histogram (Count)
system.membus.power_state.pwrStateResidencyTicks::UNDEFINED   1755662774                       # Cumulative time (in ticks) in various power states (Tick)
system.membus.reqLayer2.occupancy           277579727                       # Layer occupancy (ticks) (Tick)
system.membus.reqLayer2.utilization               0.2                       # Layer utilization (Ratio)
system.membus.respLayer1.occupancy          215041350                       # Layer occupancy (ticks) (Tick)
system.membus.respLayer1.utilization              0.1                       # Layer utilization (Ratio)
system.membus.respLayer2.occupancy          404741946                       # Layer occupancy (ticks) (Tick)
system.membus.respLayer2.utilization              0.2                       # Layer utilization (Ratio)
system.membus.snoop_filter.totRequests          18355                       # Total number of requests made to the snoop filter. (Count)
system.membus.snoop_filter.hitSingleRequests         9178                       # Number of requests hitting in the snoop filter with a single holder of the requested data. (Count)
system.membus.snoop_filter.hitMultiRequests            0                       # Number of requests hitting in the snoop filter with multiple (>1) holders of the requested data. (Count)
system.membus.snoop_filter.totSnoops                0                       # Total number of snoops made to the snoop filter. (Count)
system.membus.snoop_filter.hitSingleSnoops            0                       # Number of snoops hitting in the snoop filter with a single holder of the requested data. (Count)
system.membus.snoop_filter.hitMultiSnoops            0                       # Number of snoops hitting in the snoop filter with multiple (>1) holders of the requested data. (Count)
system.workload.inst.arm                            0                       # number of arm instructions executed (Count)
system.workload.inst.quiesce                        0                       # number of quiesce instructions executed (Count)

---------- End Simulation Statistics   ----------
