---------- Begin Simulation Statistics ----------
simSeconds                                   2.171735                       # Number of seconds simulated (Second)
simTicks                                 2171735265261                       # Number of ticks simulated (Tick)
finalTick                                2414591940359                       # Number of ticks from beginning of simulation (restored from checkpoints and never reset) (Tick)
simFreq                                  1000000000000                       # The number of ticks per simulated second ((Tick/Second))
hostSeconds                                     72.88                       # Real time elapsed on the host (Second)
hostTickRate                              29800501053                       # The number of ticks simulated per host second (ticks/s) ((Tick/Second))
hostMemory                                    8674288                       # Number of bytes of host memory used (Byte)
simInsts                                     51104794                       # Number of instructions simulated (Count)
simOps                                       84062170                       # Number of ops (including micro ops) simulated (Count)
hostInstRate                                   701258                       # Simulator instruction rate (inst/s) ((Count/Second))
hostOpRate                                    1153497                       # Simulator op (including micro ops) rate (op/s) ((Count/Second))
system.clk_domain.clock                         13333                       # Clock period in ticks (Tick)
system.clk_domain.voltage_domain.voltage            1                       # Voltage in Volts (Volt)
system.cpu.numCycles                        162884217                       # Number of cpu cycles simulated (Cycle)
system.cpu.cpi                               3.579654                       # CPI: cycles per instruction (core level) ((Cycle/Count))
system.cpu.ipc                               0.279357                       # IPC: instructions per cycle (core level) ((Count/Cycle))
system.cpu.numWorkItemsStarted                      0                       # Number of work items this cpu started (Count)
system.cpu.numWorkItemsCompleted                    0                       # Number of work items this cpu completed (Count)
system.cpu.commitStats0.numInsts             45502786                       # Number of instructions committed (thread level) (Count)
system.cpu.commitStats0.numOps               73708324                       # Number of ops (including micro ops) committed (thread level) (Count)
system.cpu.commitStats0.numInstsNotNOP              0                       # Number of instructions committed excluding NOPs or prefetches (Count)
system.cpu.commitStats0.numOpsNotNOP                0                       # Number of Ops (including micro ops) Simulated (Count)
system.cpu.commitStats0.cpi                  3.579654                       # CPI: cycles per instruction (thread level) ((Cycle/Count))
system.cpu.commitStats0.ipc                  0.279357                       # IPC: instructions per cycle (thread level) ((Count/Cycle))
system.cpu.commitStats0.numMemRefs                  0                       # Number of memory references committed (Count)
system.cpu.commitStats0.numFpInsts           44145093                       # Number of float instructions (Count)
system.cpu.commitStats0.numIntInsts          40122368                       # Number of integer instructions (Count)
system.cpu.commitStats0.numLoadInsts          8410607                       # Number of load instructions (Count)
system.cpu.commitStats0.numStoreInsts         2690756                       # Number of store instructions (Count)
system.cpu.commitStats0.numVecInsts                 0                       # Number of vector instructions (Count)
system.cpu.commitStats0.committedInstType::No_OpClass       482743      0.65%      0.65% # Class of committed instruction. (Count)
system.cpu.commitStats0.committedInstType::IntAlu     34139682     46.32%     46.97% # Class of committed instruction. (Count)
system.cpu.commitStats0.committedInstType::IntMult       109315      0.15%     47.12% # Class of committed instruction. (Count)
system.cpu.commitStats0.committedInstType::IntDiv         6833      0.01%     47.13% # Class of committed instruction. (Count)
system.cpu.commitStats0.committedInstType::FloatAdd      5465007      7.41%     54.54% # Class of committed instruction. (Count)
system.cpu.commitStats0.committedInstType::FloatCmp            0      0.00%     54.54% # Class of committed instruction. (Count)
system.cpu.commitStats0.committedInstType::FloatCvt          192      0.00%     54.54% # Class of committed instruction. (Count)
system.cpu.commitStats0.committedInstType::FloatMult            0      0.00%     54.54% # Class of committed instruction. (Count)
system.cpu.commitStats0.committedInstType::FloatMultAcc            0      0.00%     54.54% # Class of committed instruction. (Count)
system.cpu.commitStats0.committedInstType::FloatDiv            0      0.00%     54.54% # Class of committed instruction. (Count)
system.cpu.commitStats0.committedInstType::FloatMisc            0      0.00%     54.54% # Class of committed instruction. (Count)
system.cpu.commitStats0.committedInstType::FloatSqrt            0      0.00%     54.54% # Class of committed instruction. (Count)
system.cpu.commitStats0.committedInstType::SimdAdd          298      0.00%     54.54% # Class of committed instruction. (Count)
system.cpu.commitStats0.committedInstType::SimdAddAcc            0      0.00%     54.54% # Class of committed instruction. (Count)
system.cpu.commitStats0.committedInstType::SimdAlu      1786012      2.42%     56.97% # Class of committed instruction. (Count)
system.cpu.commitStats0.committedInstType::SimdCmp            0      0.00%     56.97% # Class of committed instruction. (Count)
system.cpu.commitStats0.committedInstType::SimdCvt          232      0.00%     56.97% # Class of committed instruction. (Count)
system.cpu.commitStats0.committedInstType::SimdMisc      2542262      3.45%     60.42% # Class of committed instruction. (Count)
system.cpu.commitStats0.committedInstType::SimdMult            0      0.00%     60.42% # Class of committed instruction. (Count)
system.cpu.commitStats0.committedInstType::SimdMultAcc            0      0.00%     60.42% # Class of committed instruction. (Count)
system.cpu.commitStats0.committedInstType::SimdMatMultAcc            0      0.00%     60.42% # Class of committed instruction. (Count)
system.cpu.commitStats0.committedInstType::SimdShift           14      0.00%     60.42% # Class of committed instruction. (Count)
system.cpu.commitStats0.committedInstType::SimdShiftAcc            0      0.00%     60.42% # Class of committed instruction. (Count)
system.cpu.commitStats0.committedInstType::SimdDiv            0      0.00%     60.42% # Class of committed instruction. (Count)
system.cpu.commitStats0.committedInstType::SimdSqrt            0      0.00%     60.42% # Class of committed instruction. (Count)
system.cpu.commitStats0.committedInstType::SimdFloatAdd      8675758     11.77%     72.19% # Class of committed instruction. (Count)
system.cpu.commitStats0.committedInstType::SimdFloatAlu            0      0.00%     72.19% # Class of committed instruction. (Count)
system.cpu.commitStats0.committedInstType::SimdFloatCmp         7540      0.01%     72.20% # Class of committed instruction. (Count)
system.cpu.commitStats0.committedInstType::SimdFloatCvt      1049715      1.42%     73.62% # Class of committed instruction. (Count)
system.cpu.commitStats0.committedInstType::SimdFloatDiv       339033      0.46%     74.08% # Class of committed instruction. (Count)
system.cpu.commitStats0.committedInstType::SimdFloatMisc            0      0.00%     74.08% # Class of committed instruction. (Count)
system.cpu.commitStats0.committedInstType::SimdFloatMult      7773182     10.55%     84.63% # Class of committed instruction. (Count)
system.cpu.commitStats0.committedInstType::SimdFloatMultAcc            0      0.00%     84.63% # Class of committed instruction. (Count)
system.cpu.commitStats0.committedInstType::SimdFloatMatMultAcc            0      0.00%     84.63% # Class of committed instruction. (Count)
system.cpu.commitStats0.committedInstType::SimdFloatSqrt       229143      0.31%     84.94% # Class of committed instruction. (Count)
system.cpu.commitStats0.committedInstType::SimdReduceAdd            0      0.00%     84.94% # Class of committed instruction. (Count)
system.cpu.commitStats0.committedInstType::SimdReduceAlu            0      0.00%     84.94% # Class of committed instruction. (Count)
system.cpu.commitStats0.committedInstType::SimdReduceCmp            0      0.00%     84.94% # Class of committed instruction. (Count)
system.cpu.commitStats0.committedInstType::SimdFloatReduceAdd            0      0.00%     84.94% # Class of committed instruction. (Count)
system.cpu.commitStats0.committedInstType::SimdFloatReduceCmp            0      0.00%     84.94% # Class of committed instruction. (Count)
system.cpu.commitStats0.committedInstType::SimdAes            0      0.00%     84.94% # Class of committed instruction. (Count)
system.cpu.commitStats0.committedInstType::SimdAesMix            0      0.00%     84.94% # Class of committed instruction. (Count)
system.cpu.commitStats0.committedInstType::SimdSha1Hash            0      0.00%     84.94% # Class of committed instruction. (Count)
system.cpu.commitStats0.committedInstType::SimdSha1Hash2            0      0.00%     84.94% # Class of committed instruction. (Count)
system.cpu.commitStats0.committedInstType::SimdSha256Hash            0      0.00%     84.94% # Class of committed instruction. (Count)
system.cpu.commitStats0.committedInstType::SimdSha256Hash2            0      0.00%     84.94% # Class of committed instruction. (Count)
system.cpu.commitStats0.committedInstType::SimdShaSigma2            0      0.00%     84.94% # Class of committed instruction. (Count)
system.cpu.commitStats0.committedInstType::SimdShaSigma3            0      0.00%     84.94% # Class of committed instruction. (Count)
system.cpu.commitStats0.committedInstType::SimdPredAlu            0      0.00%     84.94% # Class of committed instruction. (Count)
system.cpu.commitStats0.committedInstType::Matrix            0      0.00%     84.94% # Class of committed instruction. (Count)
system.cpu.commitStats0.committedInstType::MatrixMov            0      0.00%     84.94% # Class of committed instruction. (Count)
system.cpu.commitStats0.committedInstType::MatrixOP            0      0.00%     84.94% # Class of committed instruction. (Count)
system.cpu.commitStats0.committedInstType::MemRead      1273214      1.73%     86.67% # Class of committed instruction. (Count)
system.cpu.commitStats0.committedInstType::MemWrite       882393      1.20%     87.86% # Class of committed instruction. (Count)
system.cpu.commitStats0.committedInstType::FloatMemRead      7137393      9.68%     97.55% # Class of committed instruction. (Count)
system.cpu.commitStats0.committedInstType::FloatMemWrite      1808363      2.45%    100.00% # Class of committed instruction. (Count)
system.cpu.commitStats0.committedInstType::IprAccess            0      0.00%    100.00% # Class of committed instruction. (Count)
system.cpu.commitStats0.committedInstType::InstPrefetch            0      0.00%    100.00% # Class of committed instruction. (Count)
system.cpu.commitStats0.committedInstType::SimdUnitStrideLoad            0      0.00%    100.00% # Class of committed instruction. (Count)
system.cpu.commitStats0.committedInstType::SimdUnitStrideStore            0      0.00%    100.00% # Class of committed instruction. (Count)
system.cpu.commitStats0.committedInstType::SimdUnitStrideMaskLoad            0      0.00%    100.00% # Class of committed instruction. (Count)
system.cpu.commitStats0.committedInstType::SimdUnitStrideMaskStore            0      0.00%    100.00% # Class of committed instruction. (Count)
system.cpu.commitStats0.committedInstType::SimdStridedLoad            0      0.00%    100.00% # Class of committed instruction. (Count)
system.cpu.commitStats0.committedInstType::SimdStridedStore            0      0.00%    100.00% # Class of committed instruction. (Count)
system.cpu.commitStats0.committedInstType::SimdIndexedLoad            0      0.00%    100.00% # Class of committed instruction. (Count)
system.cpu.commitStats0.committedInstType::SimdIndexedStore            0      0.00%    100.00% # Class of committed instruction. (Count)
system.cpu.commitStats0.committedInstType::SimdWholeRegisterLoad            0      0.00%    100.00% # Class of committed instruction. (Count)
system.cpu.commitStats0.committedInstType::SimdWholeRegisterStore            0      0.00%    100.00% # Class of committed instruction. (Count)
system.cpu.commitStats0.committedInstType::SimdUnitStrideFaultOnlyFirstLoad            0      0.00%    100.00% # Class of committed instruction. (Count)
system.cpu.commitStats0.committedInstType::SimdUnitStrideSegmentedLoad            0      0.00%    100.00% # Class of committed instruction. (Count)
system.cpu.commitStats0.committedInstType::SimdUnitStrideSegmentedStore            0      0.00%    100.00% # Class of committed instruction. (Count)
system.cpu.commitStats0.committedInstType::SimdExt            0      0.00%    100.00% # Class of committed instruction. (Count)
system.cpu.commitStats0.committedInstType::SimdFloatExt            0      0.00%    100.00% # Class of committed instruction. (Count)
system.cpu.commitStats0.committedInstType::SimdConfig            0      0.00%    100.00% # Class of committed instruction. (Count)
system.cpu.commitStats0.committedInstType::total     73708324                       # Class of committed instruction. (Count)
system.cpu.commitStats0.committedControl::IsControl      3447093                       # Class of control type instructions committed (Count)
system.cpu.commitStats0.committedControl::IsDirectControl      2828141                       # Class of control type instructions committed (Count)
system.cpu.commitStats0.committedControl::IsIndirectControl       618950                       # Class of control type instructions committed (Count)
system.cpu.commitStats0.committedControl::IsCondControl      2471421                       # Class of control type instructions committed (Count)
system.cpu.commitStats0.committedControl::IsUncondControl       975670                       # Class of control type instructions committed (Count)
system.cpu.commitStats0.committedControl::IsCall       316989                       # Class of control type instructions committed (Count)
system.cpu.commitStats0.committedControl::IsReturn       316989                       # Class of control type instructions committed (Count)
system.cpu.exec_context.thread_0.numMatAluAccesses            0                       # Number of matrix alu accesses (Count)
system.cpu.exec_context.thread_0.numCallsReturns       633978                       # Number of times a function call or return occured (Count)
system.cpu.exec_context.thread_0.numMatInsts            0                       # Number of matrix instructions (Count)
system.cpu.exec_context.thread_0.numIdleCycles            0                       # Number of idle cycles (Cycle)
system.cpu.exec_context.thread_0.numBusyCycles    162884217                       # Number of busy cycles (Cycle)
system.cpu.exec_context.thread_0.notIdleFraction            1                       # Percentage of non-idle cycles (Ratio)
system.cpu.exec_context.thread_0.idleFraction            0                       # Percentage of idle cycles (Ratio)
system.cpu.executeStats0.numInsts                   0                       # Number of executed instructions (Count)
system.cpu.executeStats0.numNop                     0                       # Number of nop insts executed (Count)
system.cpu.executeStats0.numBranches                0                       # Number of branches executed (Count)
system.cpu.executeStats0.numLoadInsts               0                       # Number of load instructions executed (Count)
system.cpu.executeStats0.numStoreInsts       11101363                       # Number of stores executed (Count)
system.cpu.executeStats0.instRate                   0                       # Inst execution rate ((Count/Cycle))
system.cpu.executeStats0.numFpAluAccesses     44145093                       # Number of float alu accesses (Count)
system.cpu.executeStats0.numFpRegReads       75531511                       # Number of times the floating registers were read (Count)
system.cpu.executeStats0.numFpRegWrites      40543329                       # Number of times the floating registers were written (Count)
system.cpu.executeStats0.numIntAluAccesses     40122368                       # Number of integer alu accesses (Count)
system.cpu.executeStats0.numIntRegReads      43795206                       # Number of times the integer registers were read (Count)
system.cpu.executeStats0.numIntRegWrites     24596995                       # Number of times the integer registers were written (Count)
system.cpu.executeStats0.numMemRefs          11101363                       # Number of memory refs (Count)
system.cpu.executeStats0.numMiscRegReads     20115908                       # Number of times the Misc registers were read (Count)
system.cpu.executeStats0.numMiscRegWrites          108                       # Number of times the Misc registers were written (Count)
system.cpu.executeStats0.numVecAluAccesses            0                       # Number of vector alu accesses (Count)
system.cpu.executeStats0.numDiscardedOps            0                       # Number of ops (including micro ops) which were discarded before commit (Count)
system.cpu.fetchStats0.numInsts              45502786                       # Number of instructions fetched (thread level) (Count)
system.cpu.fetchStats0.numOps                73708324                       # Number of ops (including micro ops) fetched (thread level) (Count)
system.cpu.fetchStats0.fetchRate             0.279357                       # Number of inst fetches per cycle ((Count/Cycle))
system.cpu.fetchStats0.numBranches            3447093                       # Number of branches fetched (Count)
system.cpu.fetchStats0.branchRate            0.021163                       # Number of branch fetches per cycle (Ratio)
system.cpu.fetchStats0.numFetchSuspends             0                       # Number of times Execute suspended instruction fetching (Count)
system.cpu.interrupts.clk_domain.clock         213328                       # Clock period in ticks (Tick)
system.cpu.l1d.demandHits::cpu.data          10858517                       # number of demand (read+write) hits (Count)
system.cpu.l1d.demandHits::total             10858517                       # number of demand (read+write) hits (Count)
system.cpu.l1d.overallHits::cpu.data         10858517                       # number of overall hits (Count)
system.cpu.l1d.overallHits::total            10858517                       # number of overall hits (Count)
system.cpu.l1d.demandMisses::cpu.data          238232                       # number of demand (read+write) misses (Count)
system.cpu.l1d.demandMisses::total             238232                       # number of demand (read+write) misses (Count)
system.cpu.l1d.overallMisses::cpu.data         238232                       # number of overall misses (Count)
system.cpu.l1d.overallMisses::total            238232                       # number of overall misses (Count)
system.cpu.l1d.demandMissLatency::cpu.data  45955811076                       # number of demand (read+write) miss ticks (Tick)
system.cpu.l1d.demandMissLatency::total   45955811076                       # number of demand (read+write) miss ticks (Tick)
system.cpu.l1d.overallMissLatency::cpu.data  45955811076                       # number of overall miss ticks (Tick)
system.cpu.l1d.overallMissLatency::total  45955811076                       # number of overall miss ticks (Tick)
system.cpu.l1d.demandAccesses::cpu.data      11096749                       # number of demand (read+write) accesses (Count)
system.cpu.l1d.demandAccesses::total         11096749                       # number of demand (read+write) accesses (Count)
system.cpu.l1d.overallAccesses::cpu.data     11096749                       # number of overall (read+write) accesses (Count)
system.cpu.l1d.overallAccesses::total        11096749                       # number of overall (read+write) accesses (Count)
system.cpu.l1d.demandMissRate::cpu.data      0.021469                       # miss rate for demand accesses (Ratio)
system.cpu.l1d.demandMissRate::total         0.021469                       # miss rate for demand accesses (Ratio)
system.cpu.l1d.overallMissRate::cpu.data     0.021469                       # miss rate for overall accesses (Ratio)
system.cpu.l1d.overallMissRate::total        0.021469                       # miss rate for overall accesses (Ratio)
system.cpu.l1d.demandAvgMissLatency::cpu.data 192903.602690                       # average overall miss latency in ticks ((Tick/Count))
system.cpu.l1d.demandAvgMissLatency::total 192903.602690                       # average overall miss latency in ticks ((Tick/Count))
system.cpu.l1d.overallAvgMissLatency::cpu.data 192903.602690                       # average overall miss latency ((Tick/Count))
system.cpu.l1d.overallAvgMissLatency::total 192903.602690                       # average overall miss latency ((Tick/Count))
system.cpu.l1d.blockedCycles::no_mshrs              0                       # number of cycles access was blocked (Cycle)
system.cpu.l1d.blockedCycles::no_targets            0                       # number of cycles access was blocked (Cycle)
system.cpu.l1d.blockedCauses::no_mshrs              0                       # number of times access was blocked (Count)
system.cpu.l1d.blockedCauses::no_targets            0                       # number of times access was blocked (Count)
system.cpu.l1d.avgBlocked::no_mshrs               nan                       # average number of cycles each access was blocked ((Cycle/Count))
system.cpu.l1d.avgBlocked::no_targets             nan                       # average number of cycles each access was blocked ((Cycle/Count))
system.cpu.l1d.writebacks::writebacks          219074                       # number of writebacks (Count)
system.cpu.l1d.writebacks::total               219074                       # number of writebacks (Count)
system.cpu.l1d.demandMshrHits::cpu.data         29543                       # number of demand (read+write) MSHR hits (Count)
system.cpu.l1d.demandMshrHits::total            29543                       # number of demand (read+write) MSHR hits (Count)
system.cpu.l1d.overallMshrHits::cpu.data        29543                       # number of overall MSHR hits (Count)
system.cpu.l1d.overallMshrHits::total           29543                       # number of overall MSHR hits (Count)
system.cpu.l1d.demandMshrMisses::cpu.data       208689                       # number of demand (read+write) MSHR misses (Count)
system.cpu.l1d.demandMshrMisses::total         208689                       # number of demand (read+write) MSHR misses (Count)
system.cpu.l1d.overallMshrMisses::cpu.data       208689                       # number of overall MSHR misses (Count)
system.cpu.l1d.overallMshrMisses::cpu.l1d.prefetcher       480818                       # number of overall MSHR misses (Count)
system.cpu.l1d.overallMshrMisses::total        689507                       # number of overall MSHR misses (Count)
system.cpu.l1d.demandMshrMissLatency::cpu.data  40275873078                       # number of demand (read+write) MSHR miss ticks (Tick)
system.cpu.l1d.demandMshrMissLatency::total  40275873078                       # number of demand (read+write) MSHR miss ticks (Tick)
system.cpu.l1d.overallMshrMissLatency::cpu.data  40275873078                       # number of overall MSHR miss ticks (Tick)
system.cpu.l1d.overallMshrMissLatency::cpu.l1d.prefetcher  97313089022                       # number of overall MSHR miss ticks (Tick)
system.cpu.l1d.overallMshrMissLatency::total 137588962100                       # number of overall MSHR miss ticks (Tick)
system.cpu.l1d.demandMshrMissRate::cpu.data     0.018806                       # mshr miss ratio for demand accesses (Ratio)
system.cpu.l1d.demandMshrMissRate::total     0.018806                       # mshr miss ratio for demand accesses (Ratio)
system.cpu.l1d.overallMshrMissRate::cpu.data     0.018806                       # mshr miss ratio for overall accesses (Ratio)
system.cpu.l1d.overallMshrMissRate::cpu.l1d.prefetcher          inf                       # mshr miss ratio for overall accesses (Ratio)
system.cpu.l1d.overallMshrMissRate::total     0.062136                       # mshr miss ratio for overall accesses (Ratio)
system.cpu.l1d.demandAvgMshrMissLatency::cpu.data 192994.710205                       # average overall mshr miss latency ((Tick/Count))
system.cpu.l1d.demandAvgMshrMissLatency::total 192994.710205                       # average overall mshr miss latency ((Tick/Count))
system.cpu.l1d.overallAvgMshrMissLatency::cpu.data 192994.710205                       # average overall mshr miss latency ((Tick/Count))
system.cpu.l1d.overallAvgMshrMissLatency::cpu.l1d.prefetcher 202390.694654                       # average overall mshr miss latency ((Tick/Count))
system.cpu.l1d.overallAvgMshrMissLatency::total 199546.867690                       # average overall mshr miss latency ((Tick/Count))
system.cpu.l1d.replacements                    689535                       # number of replacements (Count)
system.cpu.l1d.HardPFReq.mshrMisses::cpu.l1d.prefetcher       480818                       # number of HardPFReq MSHR misses (Count)
system.cpu.l1d.HardPFReq.mshrMisses::total       480818                       # number of HardPFReq MSHR misses (Count)
system.cpu.l1d.HardPFReq.mshrMissLatency::cpu.l1d.prefetcher  97313089022                       # number of HardPFReq MSHR miss ticks (Tick)
system.cpu.l1d.HardPFReq.mshrMissLatency::total  97313089022                       # number of HardPFReq MSHR miss ticks (Tick)
system.cpu.l1d.HardPFReq.mshrMissRate::cpu.l1d.prefetcher          inf                       # mshr miss rate for HardPFReq accesses (Ratio)
system.cpu.l1d.HardPFReq.mshrMissRate::total          inf                       # mshr miss rate for HardPFReq accesses (Ratio)
system.cpu.l1d.HardPFReq.avgMshrMissLatency::cpu.l1d.prefetcher 202390.694654                       # average HardPFReq mshr miss latency ((Tick/Count))
system.cpu.l1d.HardPFReq.avgMshrMissLatency::total 202390.694654                       # average HardPFReq mshr miss latency ((Tick/Count))
system.cpu.l1d.LockedRMWReadReq.hits::cpu.data         2034                       # number of LockedRMWReadReq hits (Count)
system.cpu.l1d.LockedRMWReadReq.hits::total         2034                       # number of LockedRMWReadReq hits (Count)
system.cpu.l1d.LockedRMWReadReq.misses::cpu.data           28                       # number of LockedRMWReadReq misses (Count)
system.cpu.l1d.LockedRMWReadReq.misses::total           28                       # number of LockedRMWReadReq misses (Count)
system.cpu.l1d.LockedRMWReadReq.missLatency::cpu.data      5826521                       # number of LockedRMWReadReq miss ticks (Tick)
system.cpu.l1d.LockedRMWReadReq.missLatency::total      5826521                       # number of LockedRMWReadReq miss ticks (Tick)
system.cpu.l1d.LockedRMWReadReq.accesses::cpu.data         2062                       # number of LockedRMWReadReq accesses(hits+misses) (Count)
system.cpu.l1d.LockedRMWReadReq.accesses::total         2062                       # number of LockedRMWReadReq accesses(hits+misses) (Count)
system.cpu.l1d.LockedRMWReadReq.missRate::cpu.data     0.013579                       # miss rate for LockedRMWReadReq accesses (Ratio)
system.cpu.l1d.LockedRMWReadReq.missRate::total     0.013579                       # miss rate for LockedRMWReadReq accesses (Ratio)
system.cpu.l1d.LockedRMWReadReq.avgMissLatency::cpu.data 208090.035714                       # average LockedRMWReadReq miss latency ((Tick/Count))
system.cpu.l1d.LockedRMWReadReq.avgMissLatency::total 208090.035714                       # average LockedRMWReadReq miss latency ((Tick/Count))
system.cpu.l1d.LockedRMWReadReq.mshrMisses::cpu.data           28                       # number of LockedRMWReadReq MSHR misses (Count)
system.cpu.l1d.LockedRMWReadReq.mshrMisses::total           28                       # number of LockedRMWReadReq MSHR misses (Count)
system.cpu.l1d.LockedRMWReadReq.mshrMissLatency::cpu.data     38399040                       # number of LockedRMWReadReq MSHR miss ticks (Tick)
system.cpu.l1d.LockedRMWReadReq.mshrMissLatency::total     38399040                       # number of LockedRMWReadReq MSHR miss ticks (Tick)
system.cpu.l1d.LockedRMWReadReq.mshrMissRate::cpu.data     0.013579                       # mshr miss rate for LockedRMWReadReq accesses (Ratio)
system.cpu.l1d.LockedRMWReadReq.mshrMissRate::total     0.013579                       # mshr miss rate for LockedRMWReadReq accesses (Ratio)
system.cpu.l1d.LockedRMWReadReq.avgMshrMissLatency::cpu.data 1371394.285714                       # average LockedRMWReadReq mshr miss latency ((Tick/Count))
system.cpu.l1d.LockedRMWReadReq.avgMshrMissLatency::total 1371394.285714                       # average LockedRMWReadReq mshr miss latency ((Tick/Count))
system.cpu.l1d.LockedRMWWriteReq.hits::cpu.data         2062                       # number of LockedRMWWriteReq hits (Count)
system.cpu.l1d.LockedRMWWriteReq.hits::total         2062                       # number of LockedRMWWriteReq hits (Count)
system.cpu.l1d.LockedRMWWriteReq.accesses::cpu.data         2062                       # number of LockedRMWWriteReq accesses(hits+misses) (Count)
system.cpu.l1d.LockedRMWWriteReq.accesses::total         2062                       # number of LockedRMWWriteReq accesses(hits+misses) (Count)
system.cpu.l1d.ReadReq.hits::cpu.data         8241172                       # number of ReadReq hits (Count)
system.cpu.l1d.ReadReq.hits::total            8241172                       # number of ReadReq hits (Count)
system.cpu.l1d.ReadReq.misses::cpu.data        167370                       # number of ReadReq misses (Count)
system.cpu.l1d.ReadReq.misses::total           167370                       # number of ReadReq misses (Count)
system.cpu.l1d.ReadReq.missLatency::cpu.data  34820369469                       # number of ReadReq miss ticks (Tick)
system.cpu.l1d.ReadReq.missLatency::total  34820369469                       # number of ReadReq miss ticks (Tick)
system.cpu.l1d.ReadReq.accesses::cpu.data      8408542                       # number of ReadReq accesses(hits+misses) (Count)
system.cpu.l1d.ReadReq.accesses::total        8408542                       # number of ReadReq accesses(hits+misses) (Count)
system.cpu.l1d.ReadReq.missRate::cpu.data     0.019905                       # miss rate for ReadReq accesses (Ratio)
system.cpu.l1d.ReadReq.missRate::total       0.019905                       # miss rate for ReadReq accesses (Ratio)
system.cpu.l1d.ReadReq.avgMissLatency::cpu.data 208044.269995                       # average ReadReq miss latency ((Tick/Count))
system.cpu.l1d.ReadReq.avgMissLatency::total 208044.269995                       # average ReadReq miss latency ((Tick/Count))
system.cpu.l1d.ReadReq.mshrHits::cpu.data         7112                       # number of ReadReq MSHR hits (Count)
system.cpu.l1d.ReadReq.mshrHits::total           7112                       # number of ReadReq MSHR hits (Count)
system.cpu.l1d.ReadReq.mshrMisses::cpu.data       160258                       # number of ReadReq MSHR misses (Count)
system.cpu.l1d.ReadReq.mshrMisses::total       160258                       # number of ReadReq MSHR misses (Count)
system.cpu.l1d.ReadReq.mshrMissLatency::cpu.data  31703580724                       # number of ReadReq MSHR miss ticks (Tick)
system.cpu.l1d.ReadReq.mshrMissLatency::total  31703580724                       # number of ReadReq MSHR miss ticks (Tick)
system.cpu.l1d.ReadReq.mshrMissRate::cpu.data     0.019059                       # mshr miss rate for ReadReq accesses (Ratio)
system.cpu.l1d.ReadReq.mshrMissRate::total     0.019059                       # mshr miss rate for ReadReq accesses (Ratio)
system.cpu.l1d.ReadReq.avgMshrMissLatency::cpu.data 197828.381260                       # average ReadReq mshr miss latency ((Tick/Count))
system.cpu.l1d.ReadReq.avgMshrMissLatency::total 197828.381260                       # average ReadReq mshr miss latency ((Tick/Count))
system.cpu.l1d.WriteReq.hits::cpu.data        2617345                       # number of WriteReq hits (Count)
system.cpu.l1d.WriteReq.hits::total           2617345                       # number of WriteReq hits (Count)
system.cpu.l1d.WriteReq.misses::cpu.data        70862                       # number of WriteReq misses (Count)
system.cpu.l1d.WriteReq.misses::total           70862                       # number of WriteReq misses (Count)
system.cpu.l1d.WriteReq.missLatency::cpu.data  11135441607                       # number of WriteReq miss ticks (Tick)
system.cpu.l1d.WriteReq.missLatency::total  11135441607                       # number of WriteReq miss ticks (Tick)
system.cpu.l1d.WriteReq.accesses::cpu.data      2688207                       # number of WriteReq accesses(hits+misses) (Count)
system.cpu.l1d.WriteReq.accesses::total       2688207                       # number of WriteReq accesses(hits+misses) (Count)
system.cpu.l1d.WriteReq.missRate::cpu.data     0.026360                       # miss rate for WriteReq accesses (Ratio)
system.cpu.l1d.WriteReq.missRate::total      0.026360                       # miss rate for WriteReq accesses (Ratio)
system.cpu.l1d.WriteReq.avgMissLatency::cpu.data 157142.637902                       # average WriteReq miss latency ((Tick/Count))
system.cpu.l1d.WriteReq.avgMissLatency::total 157142.637902                       # average WriteReq miss latency ((Tick/Count))
system.cpu.l1d.WriteReq.mshrHits::cpu.data        22431                       # number of WriteReq MSHR hits (Count)
system.cpu.l1d.WriteReq.mshrHits::total         22431                       # number of WriteReq MSHR hits (Count)
system.cpu.l1d.WriteReq.mshrMisses::cpu.data        48431                       # number of WriteReq MSHR misses (Count)
system.cpu.l1d.WriteReq.mshrMisses::total        48431                       # number of WriteReq MSHR misses (Count)
system.cpu.l1d.WriteReq.mshrMissLatency::cpu.data   8572292354                       # number of WriteReq MSHR miss ticks (Tick)
system.cpu.l1d.WriteReq.mshrMissLatency::total   8572292354                       # number of WriteReq MSHR miss ticks (Tick)
system.cpu.l1d.WriteReq.mshrMissRate::cpu.data     0.018016                       # mshr miss rate for WriteReq accesses (Ratio)
system.cpu.l1d.WriteReq.mshrMissRate::total     0.018016                       # mshr miss rate for WriteReq accesses (Ratio)
system.cpu.l1d.WriteReq.avgMshrMissLatency::cpu.data 177000.110549                       # average WriteReq mshr miss latency ((Tick/Count))
system.cpu.l1d.WriteReq.avgMshrMissLatency::total 177000.110549                       # average WriteReq mshr miss latency ((Tick/Count))
system.cpu.l1d.power_state.pwrStateResidencyTicks::UNDEFINED 2171735265261                       # Cumulative time (in ticks) in various power states (Tick)
system.cpu.l1d.prefetcher.demandMshrMisses       208689                       # demands not covered by prefetchs (Count)
system.cpu.l1d.prefetcher.pfIssued             559410                       # number of hwpf issued (Count)
system.cpu.l1d.prefetcher.pfUnused             121851                       # number of HardPF blocks evicted w/o reference (Count)
system.cpu.l1d.prefetcher.pfUseful             329419                       # number of useful prefetch (Count)
system.cpu.l1d.prefetcher.pfUsefulButMiss            0                       # number of hit on prefetch but cache block is not in an usable state (Count)
system.cpu.l1d.prefetcher.accuracy           0.588869                       # accuracy of the prefetcher (Count)
system.cpu.l1d.prefetcher.coverage           0.612180                       # coverage brought by this prefetcher (Count)
system.cpu.l1d.prefetcher.pfHitInCache          78547                       # number of prefetches hitting in cache (Count)
system.cpu.l1d.prefetcher.pfHitInMSHR               0                       # number of prefetches hitting in a MSHR (Count)
system.cpu.l1d.prefetcher.pfHitInWB                45                       # number of prefetches hit in the Write Buffer (Count)
system.cpu.l1d.prefetcher.pfLate                78592                       # number of late prefetches (hitting in cache, MSHR or WB) (Count)
system.cpu.l1d.prefetcher.pfIdentified         559425                       # number of prefetch candidates identified (Count)
system.cpu.l1d.prefetcher.pfBufferHit               0                       # number of redundant prefetches already in prefetch queue (Count)
system.cpu.l1d.prefetcher.pfInCache                 0                       # number of redundant prefetches already in cache/mshr dropped (Count)
system.cpu.l1d.prefetcher.pfRemovedDemand           15                       # number of prefetches dropped due to a demand for the same address (Count)
system.cpu.l1d.prefetcher.pfRemovedFull             0                       # number of prefetches dropped due to prefetch queue size (Count)
system.cpu.l1d.prefetcher.pfSpanPage             8254                       # number of prefetches that crossed the page (Count)
system.cpu.l1d.prefetcher.pfUsefulSpanPage         4033                       # number of prefetches that is useful and crossed the page (Count)
system.cpu.l1d.prefetcher.power_state.pwrStateResidencyTicks::UNDEFINED 2171735265261                       # Cumulative time (in ticks) in various power states (Tick)
system.cpu.l1d.tags.tagsInUse                      64                       # Average ticks per tags in use ((Tick/Count))
system.cpu.l1d.tags.totalRefs                11561151                       # Total number of references to valid blocks. (Count)
system.cpu.l1d.tags.sampledRefs                689535                       # Sample count of references to valid blocks. (Count)
system.cpu.l1d.tags.avgRefs                 16.766591                       # Average number of references to valid blocks. ((Count/Count))
system.cpu.l1d.tags.warmupTick                      0                       # The tick when the warmup percentage was hit. (Tick)
system.cpu.l1d.tags.occupancies::cpu.data    24.248904                       # Average occupied blocks per tick, per requestor ((Count/Tick))
system.cpu.l1d.tags.occupancies::cpu.l1d.prefetcher    39.751096                       # Average occupied blocks per tick, per requestor ((Count/Tick))
system.cpu.l1d.tags.avgOccs::cpu.data        0.378889                       # Average percentage of cache occupancy ((Ratio/Tick))
system.cpu.l1d.tags.avgOccs::cpu.l1d.prefetcher     0.621111                       # Average percentage of cache occupancy ((Ratio/Tick))
system.cpu.l1d.tags.avgOccs::total                  1                       # Average percentage of cache occupancy ((Ratio/Tick))
system.cpu.l1d.tags.occupanciesTaskId::1022           29                       # Occupied blocks per task id (Count)
system.cpu.l1d.tags.occupanciesTaskId::1024           35                       # Occupied blocks per task id (Count)
system.cpu.l1d.tags.ageTaskId_1022::0               7                       # Occupied blocks per task id, per block age (Count)
system.cpu.l1d.tags.ageTaskId_1022::1              15                       # Occupied blocks per task id, per block age (Count)
system.cpu.l1d.tags.ageTaskId_1022::2               7                       # Occupied blocks per task id, per block age (Count)
system.cpu.l1d.tags.ageTaskId_1024::0               3                       # Occupied blocks per task id, per block age (Count)
system.cpu.l1d.tags.ageTaskId_1024::1              24                       # Occupied blocks per task id, per block age (Count)
system.cpu.l1d.tags.ageTaskId_1024::2               8                       # Occupied blocks per task id, per block age (Count)
system.cpu.l1d.tags.ratioOccsTaskId::1022     0.453125                       # Ratio of occupied blocks and all blocks, per task id (Ratio)
system.cpu.l1d.tags.ratioOccsTaskId::1024     0.546875                       # Ratio of occupied blocks and all blocks, per task id (Ratio)
system.cpu.l1d.tags.tagAccesses              22891281                       # Number of tag accesses (Count)
system.cpu.l1d.tags.dataAccesses             22891281                       # Number of data accesses (Count)
system.cpu.l1d.tags.power_state.pwrStateResidencyTicks::UNDEFINED 2171735265261                       # Cumulative time (in ticks) in various power states (Tick)
system.cpu.l1i.demandHits::cpu.inst          63028595                       # number of demand (read+write) hits (Count)
system.cpu.l1i.demandHits::total             63028595                       # number of demand (read+write) hits (Count)
system.cpu.l1i.overallHits::cpu.inst         63028595                       # number of overall hits (Count)
system.cpu.l1i.overallHits::total            63028595                       # number of overall hits (Count)
system.cpu.l1i.demandMisses::cpu.inst         4495198                       # number of demand (read+write) misses (Count)
system.cpu.l1i.demandMisses::total            4495198                       # number of demand (read+write) misses (Count)
system.cpu.l1i.overallMisses::cpu.inst        4495198                       # number of overall misses (Count)
system.cpu.l1i.overallMisses::total           4495198                       # number of overall misses (Count)
system.cpu.l1i.demandMissLatency::cpu.inst 935694340390                       # number of demand (read+write) miss ticks (Tick)
system.cpu.l1i.demandMissLatency::total  935694340390                       # number of demand (read+write) miss ticks (Tick)
system.cpu.l1i.overallMissLatency::cpu.inst 935694340390                       # number of overall miss ticks (Tick)
system.cpu.l1i.overallMissLatency::total 935694340390                       # number of overall miss ticks (Tick)
system.cpu.l1i.demandAccesses::cpu.inst      67523793                       # number of demand (read+write) accesses (Count)
system.cpu.l1i.demandAccesses::total         67523793                       # number of demand (read+write) accesses (Count)
system.cpu.l1i.overallAccesses::cpu.inst     67523793                       # number of overall (read+write) accesses (Count)
system.cpu.l1i.overallAccesses::total        67523793                       # number of overall (read+write) accesses (Count)
system.cpu.l1i.demandMissRate::cpu.inst      0.066572                       # miss rate for demand accesses (Ratio)
system.cpu.l1i.demandMissRate::total         0.066572                       # miss rate for demand accesses (Ratio)
system.cpu.l1i.overallMissRate::cpu.inst     0.066572                       # miss rate for overall accesses (Ratio)
system.cpu.l1i.overallMissRate::total        0.066572                       # miss rate for overall accesses (Ratio)
system.cpu.l1i.demandAvgMissLatency::cpu.inst 208154.199301                       # average overall miss latency in ticks ((Tick/Count))
system.cpu.l1i.demandAvgMissLatency::total 208154.199301                       # average overall miss latency in ticks ((Tick/Count))
system.cpu.l1i.overallAvgMissLatency::cpu.inst 208154.199301                       # average overall miss latency ((Tick/Count))
system.cpu.l1i.overallAvgMissLatency::total 208154.199301                       # average overall miss latency ((Tick/Count))
system.cpu.l1i.blockedCycles::no_mshrs              0                       # number of cycles access was blocked (Cycle)
system.cpu.l1i.blockedCycles::no_targets            0                       # number of cycles access was blocked (Cycle)
system.cpu.l1i.blockedCauses::no_mshrs              0                       # number of times access was blocked (Count)
system.cpu.l1i.blockedCauses::no_targets            0                       # number of times access was blocked (Count)
system.cpu.l1i.avgBlocked::no_mshrs               nan                       # average number of cycles each access was blocked ((Cycle/Count))
system.cpu.l1i.avgBlocked::no_targets             nan                       # average number of cycles each access was blocked ((Cycle/Count))
system.cpu.l1i.demandMshrMisses::cpu.inst      4495198                       # number of demand (read+write) MSHR misses (Count)
system.cpu.l1i.demandMshrMisses::total        4495198                       # number of demand (read+write) MSHR misses (Count)
system.cpu.l1i.overallMshrMisses::cpu.inst      4495198                       # number of overall MSHR misses (Count)
system.cpu.l1i.overallMshrMisses::total       4495198                       # number of overall MSHR misses (Count)
system.cpu.l1i.demandMshrMissLatency::cpu.inst 875759865456                       # number of demand (read+write) MSHR miss ticks (Tick)
system.cpu.l1i.demandMshrMissLatency::total 875759865456                       # number of demand (read+write) MSHR miss ticks (Tick)
system.cpu.l1i.overallMshrMissLatency::cpu.inst 875759865456                       # number of overall MSHR miss ticks (Tick)
system.cpu.l1i.overallMshrMissLatency::total 875759865456                       # number of overall MSHR miss ticks (Tick)
system.cpu.l1i.demandMshrMissRate::cpu.inst     0.066572                       # mshr miss ratio for demand accesses (Ratio)
system.cpu.l1i.demandMshrMissRate::total     0.066572                       # mshr miss ratio for demand accesses (Ratio)
system.cpu.l1i.overallMshrMissRate::cpu.inst     0.066572                       # mshr miss ratio for overall accesses (Ratio)
system.cpu.l1i.overallMshrMissRate::total     0.066572                       # mshr miss ratio for overall accesses (Ratio)
system.cpu.l1i.demandAvgMshrMissLatency::cpu.inst 194821.199301                       # average overall mshr miss latency ((Tick/Count))
system.cpu.l1i.demandAvgMshrMissLatency::total 194821.199301                       # average overall mshr miss latency ((Tick/Count))
system.cpu.l1i.overallAvgMshrMissLatency::cpu.inst 194821.199301                       # average overall mshr miss latency ((Tick/Count))
system.cpu.l1i.overallAvgMshrMissLatency::total 194821.199301                       # average overall mshr miss latency ((Tick/Count))
system.cpu.l1i.replacements                   4495198                       # number of replacements (Count)
system.cpu.l1i.ReadReq.hits::cpu.inst        63028595                       # number of ReadReq hits (Count)
system.cpu.l1i.ReadReq.hits::total           63028595                       # number of ReadReq hits (Count)
system.cpu.l1i.ReadReq.misses::cpu.inst       4495198                       # number of ReadReq misses (Count)
system.cpu.l1i.ReadReq.misses::total          4495198                       # number of ReadReq misses (Count)
system.cpu.l1i.ReadReq.missLatency::cpu.inst 935694340390                       # number of ReadReq miss ticks (Tick)
system.cpu.l1i.ReadReq.missLatency::total 935694340390                       # number of ReadReq miss ticks (Tick)
system.cpu.l1i.ReadReq.accesses::cpu.inst     67523793                       # number of ReadReq accesses(hits+misses) (Count)
system.cpu.l1i.ReadReq.accesses::total       67523793                       # number of ReadReq accesses(hits+misses) (Count)
system.cpu.l1i.ReadReq.missRate::cpu.inst     0.066572                       # miss rate for ReadReq accesses (Ratio)
system.cpu.l1i.ReadReq.missRate::total       0.066572                       # miss rate for ReadReq accesses (Ratio)
system.cpu.l1i.ReadReq.avgMissLatency::cpu.inst 208154.199301                       # average ReadReq miss latency ((Tick/Count))
system.cpu.l1i.ReadReq.avgMissLatency::total 208154.199301                       # average ReadReq miss latency ((Tick/Count))
system.cpu.l1i.ReadReq.mshrMisses::cpu.inst      4495198                       # number of ReadReq MSHR misses (Count)
system.cpu.l1i.ReadReq.mshrMisses::total      4495198                       # number of ReadReq MSHR misses (Count)
system.cpu.l1i.ReadReq.mshrMissLatency::cpu.inst 875759865456                       # number of ReadReq MSHR miss ticks (Tick)
system.cpu.l1i.ReadReq.mshrMissLatency::total 875759865456                       # number of ReadReq MSHR miss ticks (Tick)
system.cpu.l1i.ReadReq.mshrMissRate::cpu.inst     0.066572                       # mshr miss rate for ReadReq accesses (Ratio)
system.cpu.l1i.ReadReq.mshrMissRate::total     0.066572                       # mshr miss rate for ReadReq accesses (Ratio)
system.cpu.l1i.ReadReq.avgMshrMissLatency::cpu.inst 194821.199301                       # average ReadReq mshr miss latency ((Tick/Count))
system.cpu.l1i.ReadReq.avgMshrMissLatency::total 194821.199301                       # average ReadReq mshr miss latency ((Tick/Count))
system.cpu.l1i.power_state.pwrStateResidencyTicks::UNDEFINED 2171735265261                       # Cumulative time (in ticks) in various power states (Tick)
system.cpu.l1i.tags.tagsInUse                       2                       # Average ticks per tags in use ((Tick/Count))
system.cpu.l1i.tags.totalRefs                67523792                       # Total number of references to valid blocks. (Count)
system.cpu.l1i.tags.sampledRefs               4495198                       # Sample count of references to valid blocks. (Count)
system.cpu.l1i.tags.avgRefs                 15.021317                       # Average number of references to valid blocks. ((Count/Count))
system.cpu.l1i.tags.warmupTick                      0                       # The tick when the warmup percentage was hit. (Tick)
system.cpu.l1i.tags.occupancies::cpu.inst            2                       # Average occupied blocks per tick, per requestor ((Count/Tick))
system.cpu.l1i.tags.avgOccs::cpu.inst               1                       # Average percentage of cache occupancy ((Ratio/Tick))
system.cpu.l1i.tags.avgOccs::total                  1                       # Average percentage of cache occupancy ((Ratio/Tick))
system.cpu.l1i.tags.occupanciesTaskId::1024            2                       # Occupied blocks per task id (Count)
system.cpu.l1i.tags.ageTaskId_1024::0               2                       # Occupied blocks per task id, per block age (Count)
system.cpu.l1i.tags.ratioOccsTaskId::1024            1                       # Ratio of occupied blocks and all blocks, per task id (Ratio)
system.cpu.l1i.tags.tagAccesses             139542784                       # Number of tag accesses (Count)
system.cpu.l1i.tags.dataAccesses            139542784                       # Number of data accesses (Count)
system.cpu.l1i.tags.power_state.pwrStateResidencyTicks::UNDEFINED 2171735265261                       # Cumulative time (in ticks) in various power states (Tick)
system.cpu.mmu.dtb.rdAccesses                 8410611                       # TLB accesses on read requests (Count)
system.cpu.mmu.dtb.wrAccesses                 2690760                       # TLB accesses on write requests (Count)
system.cpu.mmu.dtb.rdMisses                       428                       # TLB misses on read requests (Count)
system.cpu.mmu.dtb.wrMisses                      1021                       # TLB misses on write requests (Count)
system.cpu.mmu.dtb.walker.power_state.pwrStateResidencyTicks::UNDEFINED 2171735265261                       # Cumulative time (in ticks) in various power states (Tick)
system.cpu.mmu.itb.rdAccesses                       0                       # TLB accesses on read requests (Count)
system.cpu.mmu.itb.wrAccesses                67523813                       # TLB accesses on write requests (Count)
system.cpu.mmu.itb.rdMisses                         0                       # TLB misses on read requests (Count)
system.cpu.mmu.itb.wrMisses                       220                       # TLB misses on write requests (Count)
system.cpu.mmu.itb.walker.power_state.pwrStateResidencyTicks::UNDEFINED 2171735265261                       # Cumulative time (in ticks) in various power states (Tick)
system.cpu.power_state.pwrStateResidencyTicks::ON 2171735265261                       # Cumulative time (in ticks) in various power states (Tick)
system.cpu.thread_0.numInsts                        0                       # Number of Instructions committed (Count)
system.cpu.thread_0.numOps                          0                       # Number of Ops committed (Count)
system.cpu.thread_0.numMemRefs                      0                       # Number of Memory References (Count)
system.cpu.workload.numSyscalls                    48                       # Number of system calls (Count)
system.mem_ctrl.avgPriority_writebacks::samples    177556.00                       # Average QoS priority value for accepted requests (Count)
system.mem_ctrl.avgPriority_cpu.inst::samples   4495198.00                       # Average QoS priority value for accepted requests (Count)
system.mem_ctrl.avgPriority_cpu.data::samples    147921.00                       # Average QoS priority value for accepted requests (Count)
system.mem_ctrl.avgPriority_cpu.l1d.prefetcher::samples    419931.00                       # Average QoS priority value for accepted requests (Count)
system.mem_ctrl.priorityMinLatency       0.000000018750                       # per QoS priority minimum request to response latency (Second)
system.mem_ctrl.priorityMaxLatency       0.055761411764                       # per QoS priority maximum request to response latency (Second)
system.mem_ctrl.numReadWriteTurnArounds          9857                       # Number of turnarounds from READ to WRITE (Count)
system.mem_ctrl.numWriteReadTurnArounds          9857                       # Number of turnarounds from WRITE to READ (Count)
system.mem_ctrl.numStayReadState             10899180                       # Number of times bus staying in READ state (Count)
system.mem_ctrl.numStayWriteState              168019                       # Number of times bus staying in WRITE state (Count)
system.mem_ctrl.readReqs                      5184733                       # Number of read requests accepted (Count)
system.mem_ctrl.writeReqs                      219074                       # Number of write requests accepted (Count)
system.mem_ctrl.readBursts                    5184733                       # Number of controller read bursts, including those serviced by the write queue (Count)
system.mem_ctrl.writeBursts                    219074                       # Number of controller write bursts, including those merged in the write queue (Count)
system.mem_ctrl.servicedByWrQ                  121683                       # Number of controller read bursts serviced by the write queue (Count)
system.mem_ctrl.mergedWrBursts                  41518                       # Number of controller write bursts merged with an existing one (Count)
system.mem_ctrl.neitherReadNorWriteReqs             0                       # Number of requests that are neither read nor write (Count)
system.mem_ctrl.avgRdQLen                        1.02                       # Average read queue length when enqueuing ((Count/Tick))
system.mem_ctrl.avgWrQLen                       24.81                       # Average write queue length when enqueuing ((Count/Tick))
system.mem_ctrl.numRdRetry                          0                       # Number of times read queue was full causing retry (Count)
system.mem_ctrl.numWrRetry                          0                       # Number of times write queue was full causing retry (Count)
system.mem_ctrl.readPktSize::0                      0                       # Read request sizes (log2) (Count)
system.mem_ctrl.readPktSize::1                      0                       # Read request sizes (log2) (Count)
system.mem_ctrl.readPktSize::2                      0                       # Read request sizes (log2) (Count)
system.mem_ctrl.readPktSize::3                      0                       # Read request sizes (log2) (Count)
system.mem_ctrl.readPktSize::4                      0                       # Read request sizes (log2) (Count)
system.mem_ctrl.readPktSize::5                      0                       # Read request sizes (log2) (Count)
system.mem_ctrl.readPktSize::6                5184733                       # Read request sizes (log2) (Count)
system.mem_ctrl.writePktSize::0                     0                       # Write request sizes (log2) (Count)
system.mem_ctrl.writePktSize::1                     0                       # Write request sizes (log2) (Count)
system.mem_ctrl.writePktSize::2                     0                       # Write request sizes (log2) (Count)
system.mem_ctrl.writePktSize::3                     0                       # Write request sizes (log2) (Count)
system.mem_ctrl.writePktSize::4                     0                       # Write request sizes (log2) (Count)
system.mem_ctrl.writePktSize::5                     0                       # Write request sizes (log2) (Count)
system.mem_ctrl.writePktSize::6                219074                       # Write request sizes (log2) (Count)
system.mem_ctrl.rdQLenPdf::0                  4935936                       # What read queue length does an incoming req see (Count)
system.mem_ctrl.rdQLenPdf::1                   126841                       # What read queue length does an incoming req see (Count)
system.mem_ctrl.rdQLenPdf::2                      273                       # What read queue length does an incoming req see (Count)
system.mem_ctrl.rdQLenPdf::3                        0                       # What read queue length does an incoming req see (Count)
system.mem_ctrl.rdQLenPdf::4                        0                       # What read queue length does an incoming req see (Count)
system.mem_ctrl.rdQLenPdf::5                        0                       # What read queue length does an incoming req see (Count)
system.mem_ctrl.rdQLenPdf::6                        0                       # What read queue length does an incoming req see (Count)
system.mem_ctrl.rdQLenPdf::7                        0                       # What read queue length does an incoming req see (Count)
system.mem_ctrl.rdQLenPdf::8                        0                       # What read queue length does an incoming req see (Count)
system.mem_ctrl.rdQLenPdf::9                        0                       # What read queue length does an incoming req see (Count)
system.mem_ctrl.rdQLenPdf::10                       0                       # What read queue length does an incoming req see (Count)
system.mem_ctrl.rdQLenPdf::11                       0                       # What read queue length does an incoming req see (Count)
system.mem_ctrl.rdQLenPdf::12                       0                       # What read queue length does an incoming req see (Count)
system.mem_ctrl.rdQLenPdf::13                       0                       # What read queue length does an incoming req see (Count)
system.mem_ctrl.rdQLenPdf::14                       0                       # What read queue length does an incoming req see (Count)
system.mem_ctrl.rdQLenPdf::15                       0                       # What read queue length does an incoming req see (Count)
system.mem_ctrl.rdQLenPdf::16                       0                       # What read queue length does an incoming req see (Count)
system.mem_ctrl.rdQLenPdf::17                       0                       # What read queue length does an incoming req see (Count)
system.mem_ctrl.rdQLenPdf::18                       0                       # What read queue length does an incoming req see (Count)
system.mem_ctrl.rdQLenPdf::19                       0                       # What read queue length does an incoming req see (Count)
system.mem_ctrl.rdQLenPdf::20                       0                       # What read queue length does an incoming req see (Count)
system.mem_ctrl.rdQLenPdf::21                       0                       # What read queue length does an incoming req see (Count)
system.mem_ctrl.rdQLenPdf::22                       0                       # What read queue length does an incoming req see (Count)
system.mem_ctrl.rdQLenPdf::23                       0                       # What read queue length does an incoming req see (Count)
system.mem_ctrl.rdQLenPdf::24                       0                       # What read queue length does an incoming req see (Count)
system.mem_ctrl.rdQLenPdf::25                       0                       # What read queue length does an incoming req see (Count)
system.mem_ctrl.rdQLenPdf::26                       0                       # What read queue length does an incoming req see (Count)
system.mem_ctrl.rdQLenPdf::27                       0                       # What read queue length does an incoming req see (Count)
system.mem_ctrl.rdQLenPdf::28                       0                       # What read queue length does an incoming req see (Count)
system.mem_ctrl.rdQLenPdf::29                       0                       # What read queue length does an incoming req see (Count)
system.mem_ctrl.rdQLenPdf::30                       0                       # What read queue length does an incoming req see (Count)
system.mem_ctrl.rdQLenPdf::31                       0                       # What read queue length does an incoming req see (Count)
system.mem_ctrl.wrQLenPdf::0                        0                       # What write queue length does an incoming req see (Count)
system.mem_ctrl.wrQLenPdf::1                        0                       # What write queue length does an incoming req see (Count)
system.mem_ctrl.wrQLenPdf::2                        0                       # What write queue length does an incoming req see (Count)
system.mem_ctrl.wrQLenPdf::3                        0                       # What write queue length does an incoming req see (Count)
system.mem_ctrl.wrQLenPdf::4                        0                       # What write queue length does an incoming req see (Count)
system.mem_ctrl.wrQLenPdf::5                        0                       # What write queue length does an incoming req see (Count)
system.mem_ctrl.wrQLenPdf::6                        0                       # What write queue length does an incoming req see (Count)
system.mem_ctrl.wrQLenPdf::7                        0                       # What write queue length does an incoming req see (Count)
system.mem_ctrl.wrQLenPdf::8                        0                       # What write queue length does an incoming req see (Count)
system.mem_ctrl.wrQLenPdf::9                        0                       # What write queue length does an incoming req see (Count)
system.mem_ctrl.wrQLenPdf::10                       0                       # What write queue length does an incoming req see (Count)
system.mem_ctrl.wrQLenPdf::11                       0                       # What write queue length does an incoming req see (Count)
system.mem_ctrl.wrQLenPdf::12                       0                       # What write queue length does an incoming req see (Count)
system.mem_ctrl.wrQLenPdf::13                       0                       # What write queue length does an incoming req see (Count)
system.mem_ctrl.wrQLenPdf::14                       0                       # What write queue length does an incoming req see (Count)
system.mem_ctrl.wrQLenPdf::15                    9344                       # What write queue length does an incoming req see (Count)
system.mem_ctrl.wrQLenPdf::16                   10318                       # What write queue length does an incoming req see (Count)
system.mem_ctrl.wrQLenPdf::17                    9909                       # What write queue length does an incoming req see (Count)
system.mem_ctrl.wrQLenPdf::18                    9880                       # What write queue length does an incoming req see (Count)
system.mem_ctrl.wrQLenPdf::19                    9879                       # What write queue length does an incoming req see (Count)
system.mem_ctrl.wrQLenPdf::20                    9870                       # What write queue length does an incoming req see (Count)
system.mem_ctrl.wrQLenPdf::21                    9867                       # What write queue length does an incoming req see (Count)
system.mem_ctrl.wrQLenPdf::22                    9873                       # What write queue length does an incoming req see (Count)
system.mem_ctrl.wrQLenPdf::23                    9865                       # What write queue length does an incoming req see (Count)
system.mem_ctrl.wrQLenPdf::24                    9857                       # What write queue length does an incoming req see (Count)
system.mem_ctrl.wrQLenPdf::25                    9864                       # What write queue length does an incoming req see (Count)
system.mem_ctrl.wrQLenPdf::26                    9859                       # What write queue length does an incoming req see (Count)
system.mem_ctrl.wrQLenPdf::27                    9857                       # What write queue length does an incoming req see (Count)
system.mem_ctrl.wrQLenPdf::28                    9856                       # What write queue length does an incoming req see (Count)
system.mem_ctrl.wrQLenPdf::29                    9856                       # What write queue length does an incoming req see (Count)
system.mem_ctrl.wrQLenPdf::30                    9856                       # What write queue length does an incoming req see (Count)
system.mem_ctrl.wrQLenPdf::31                    9857                       # What write queue length does an incoming req see (Count)
system.mem_ctrl.wrQLenPdf::32                    9857                       # What write queue length does an incoming req see (Count)
system.mem_ctrl.wrQLenPdf::33                      31                       # What write queue length does an incoming req see (Count)
system.mem_ctrl.wrQLenPdf::34                       1                       # What write queue length does an incoming req see (Count)
system.mem_ctrl.wrQLenPdf::35                       0                       # What write queue length does an incoming req see (Count)
system.mem_ctrl.wrQLenPdf::36                       0                       # What write queue length does an incoming req see (Count)
system.mem_ctrl.wrQLenPdf::37                       0                       # What write queue length does an incoming req see (Count)
system.mem_ctrl.wrQLenPdf::38                       0                       # What write queue length does an incoming req see (Count)
system.mem_ctrl.wrQLenPdf::39                       0                       # What write queue length does an incoming req see (Count)
system.mem_ctrl.wrQLenPdf::40                       0                       # What write queue length does an incoming req see (Count)
system.mem_ctrl.wrQLenPdf::41                       0                       # What write queue length does an incoming req see (Count)
system.mem_ctrl.wrQLenPdf::42                       0                       # What write queue length does an incoming req see (Count)
system.mem_ctrl.wrQLenPdf::43                       0                       # What write queue length does an incoming req see (Count)
system.mem_ctrl.wrQLenPdf::44                       0                       # What write queue length does an incoming req see (Count)
system.mem_ctrl.wrQLenPdf::45                       0                       # What write queue length does an incoming req see (Count)
system.mem_ctrl.wrQLenPdf::46                       0                       # What write queue length does an incoming req see (Count)
system.mem_ctrl.wrQLenPdf::47                       0                       # What write queue length does an incoming req see (Count)
system.mem_ctrl.wrQLenPdf::48                       0                       # What write queue length does an incoming req see (Count)
system.mem_ctrl.wrQLenPdf::49                       0                       # What write queue length does an incoming req see (Count)
system.mem_ctrl.wrQLenPdf::50                       0                       # What write queue length does an incoming req see (Count)
system.mem_ctrl.wrQLenPdf::51                       0                       # What write queue length does an incoming req see (Count)
system.mem_ctrl.wrQLenPdf::52                       0                       # What write queue length does an incoming req see (Count)
system.mem_ctrl.wrQLenPdf::53                       0                       # What write queue length does an incoming req see (Count)
system.mem_ctrl.wrQLenPdf::54                       0                       # What write queue length does an incoming req see (Count)
system.mem_ctrl.wrQLenPdf::55                       0                       # What write queue length does an incoming req see (Count)
system.mem_ctrl.wrQLenPdf::56                       0                       # What write queue length does an incoming req see (Count)
system.mem_ctrl.wrQLenPdf::57                       0                       # What write queue length does an incoming req see (Count)
system.mem_ctrl.wrQLenPdf::58                       0                       # What write queue length does an incoming req see (Count)
system.mem_ctrl.wrQLenPdf::59                       0                       # What write queue length does an incoming req see (Count)
system.mem_ctrl.wrQLenPdf::60                       0                       # What write queue length does an incoming req see (Count)
system.mem_ctrl.wrQLenPdf::61                       0                       # What write queue length does an incoming req see (Count)
system.mem_ctrl.wrQLenPdf::62                       0                       # What write queue length does an incoming req see (Count)
system.mem_ctrl.wrQLenPdf::63                       0                       # What write queue length does an incoming req see (Count)
system.mem_ctrl.rdPerTurnAround::samples         9857                       # Reads before turning the bus around for writes (Count)
system.mem_ctrl.rdPerTurnAround::mean      513.643198                       # Reads before turning the bus around for writes (Count)
system.mem_ctrl.rdPerTurnAround::gmean     148.352022                       # Reads before turning the bus around for writes (Count)
system.mem_ctrl.rdPerTurnAround::stdev    1433.141089                       # Reads before turning the bus around for writes (Count)
system.mem_ctrl.rdPerTurnAround::0-1023          8827     89.55%     89.55% # Reads before turning the bus around for writes (Count)
system.mem_ctrl.rdPerTurnAround::1024-2047          262      2.66%     92.21% # Reads before turning the bus around for writes (Count)
system.mem_ctrl.rdPerTurnAround::2048-3071          221      2.24%     94.45% # Reads before turning the bus around for writes (Count)
system.mem_ctrl.rdPerTurnAround::3072-4095          149      1.51%     95.96% # Reads before turning the bus around for writes (Count)
system.mem_ctrl.rdPerTurnAround::4096-5119          244      2.48%     98.44% # Reads before turning the bus around for writes (Count)
system.mem_ctrl.rdPerTurnAround::5120-6143          105      1.07%     99.50% # Reads before turning the bus around for writes (Count)
system.mem_ctrl.rdPerTurnAround::6144-7167           25      0.25%     99.76% # Reads before turning the bus around for writes (Count)
system.mem_ctrl.rdPerTurnAround::7168-8191            3      0.03%     99.79% # Reads before turning the bus around for writes (Count)
system.mem_ctrl.rdPerTurnAround::8192-9215            2      0.02%     99.81% # Reads before turning the bus around for writes (Count)
system.mem_ctrl.rdPerTurnAround::9216-10239            1      0.01%     99.82% # Reads before turning the bus around for writes (Count)
system.mem_ctrl.rdPerTurnAround::10240-11263            1      0.01%     99.83% # Reads before turning the bus around for writes (Count)
system.mem_ctrl.rdPerTurnAround::14336-15359            1      0.01%     99.84% # Reads before turning the bus around for writes (Count)
system.mem_ctrl.rdPerTurnAround::16384-17407            2      0.02%     99.86% # Reads before turning the bus around for writes (Count)
system.mem_ctrl.rdPerTurnAround::17408-18431            2      0.02%     99.88% # Reads before turning the bus around for writes (Count)
system.mem_ctrl.rdPerTurnAround::18432-19455            2      0.02%     99.90% # Reads before turning the bus around for writes (Count)
system.mem_ctrl.rdPerTurnAround::22528-23551            1      0.01%     99.91% # Reads before turning the bus around for writes (Count)
system.mem_ctrl.rdPerTurnAround::24576-25599            6      0.06%     99.97% # Reads before turning the bus around for writes (Count)
system.mem_ctrl.rdPerTurnAround::26624-27647            1      0.01%     99.98% # Reads before turning the bus around for writes (Count)
system.mem_ctrl.rdPerTurnAround::28672-29695            1      0.01%     99.99% # Reads before turning the bus around for writes (Count)
system.mem_ctrl.rdPerTurnAround::29696-30719            1      0.01%    100.00% # Reads before turning the bus around for writes (Count)
system.mem_ctrl.rdPerTurnAround::total           9857                       # Reads before turning the bus around for writes (Count)
system.mem_ctrl.wrPerTurnAround::samples         9857                       # Writes before turning the bus around for reads (Count)
system.mem_ctrl.wrPerTurnAround::mean       18.014203                       # Writes before turning the bus around for reads (Count)
system.mem_ctrl.wrPerTurnAround::gmean      18.007279                       # Writes before turning the bus around for reads (Count)
system.mem_ctrl.wrPerTurnAround::stdev       0.491817                       # Writes before turning the bus around for reads (Count)
system.mem_ctrl.wrPerTurnAround::16               307      3.11%      3.11% # Writes before turning the bus around for reads (Count)
system.mem_ctrl.wrPerTurnAround::17               195      1.98%      5.09% # Writes before turning the bus around for reads (Count)
system.mem_ctrl.wrPerTurnAround::18              8412     85.34%     90.43% # Writes before turning the bus around for reads (Count)
system.mem_ctrl.wrPerTurnAround::19               938      9.52%     99.95% # Writes before turning the bus around for reads (Count)
system.mem_ctrl.wrPerTurnAround::20                 4      0.04%     99.99% # Writes before turning the bus around for reads (Count)
system.mem_ctrl.wrPerTurnAround::21                 1      0.01%    100.00% # Writes before turning the bus around for reads (Count)
system.mem_ctrl.wrPerTurnAround::total           9857                       # Writes before turning the bus around for reads (Count)
system.mem_ctrl.bytesReadWrQ                  7787712                       # Total number of bytes read from write queue (Byte)
system.mem_ctrl.bytesReadSys                331822912                       # Total read bytes from the system interface side (Byte)
system.mem_ctrl.bytesWrittenSys              14020736                       # Total written bytes from the system interface side (Byte)
system.mem_ctrl.avgRdBWSys               152791602.78318796                       # Average system read bandwidth in Byte/s ((Byte/Second))
system.mem_ctrl.avgWrBWSys               6456006.04469393                       # Average system write bandwidth in Byte/s ((Byte/Second))
system.mem_ctrl.totGap                   2171735265261                       # Total gap between requests (Tick)
system.mem_ctrl.avgGap                      401889.86                       # Average gap between requests ((Tick/Count))
system.mem_ctrl.requestorReadBytes::cpu.inst    287692672                       # Per-requestor bytes read from memory (Byte)
system.mem_ctrl.requestorReadBytes::cpu.data      9466944                       # Per-requestor bytes read from memory (Byte)
system.mem_ctrl.requestorReadBytes::cpu.l1d.prefetcher     26875584                       # Per-requestor bytes read from memory (Byte)
system.mem_ctrl.requestorWriteBytes::writebacks     11364224                       # Per-requestor bytes write to memory (Byte)
system.mem_ctrl.requestorReadRate::cpu.inst 132471335.987365394831                       # Per-requestor bytes read from memory rate ((Byte/Second))
system.mem_ctrl.requestorReadRate::cpu.data 4359161.151652735658                       # Per-requestor bytes read from memory rate ((Byte/Second))
system.mem_ctrl.requestorReadRate::cpu.l1d.prefetcher 12375165.808605168015                       # Per-requestor bytes read from memory rate ((Byte/Second))
system.mem_ctrl.requestorWriteRate::writebacks 5232785.128915905952                       # Per-requestor bytes write to memory rate ((Byte/Second))
system.mem_ctrl.requestorReadAccesses::cpu.inst      4495198                       # Per-requestor read serviced memory accesses (Count)
system.mem_ctrl.requestorReadAccesses::cpu.data       208717                       # Per-requestor read serviced memory accesses (Count)
system.mem_ctrl.requestorReadAccesses::cpu.l1d.prefetcher       480818                       # Per-requestor read serviced memory accesses (Count)
system.mem_ctrl.requestorWriteAccesses::writebacks       219074                       # Per-requestor write serviced memory accesses (Count)
system.mem_ctrl.requestorReadTotalLat::cpu.inst 118924127432                       # Per-requestor read total memory access latency (Tick)
system.mem_ctrl.requestorReadTotalLat::cpu.data   5244126076                       # Per-requestor read total memory access latency (Tick)
system.mem_ctrl.requestorReadTotalLat::cpu.l1d.prefetcher  12438093399                       # Per-requestor read total memory access latency (Tick)
system.mem_ctrl.requestorWriteTotalLat::writebacks 52133588543324                       # Per-requestor write total memory access latency (Tick)
system.mem_ctrl.requestorReadAvgLat::cpu.inst     26455.82                       # Per-requestor read average memory access latency ((Tick/Count))
system.mem_ctrl.requestorReadAvgLat::cpu.data     25125.53                       # Per-requestor read average memory access latency ((Tick/Count))
system.mem_ctrl.requestorReadAvgLat::cpu.l1d.prefetcher     25868.61                       # Per-requestor read average memory access latency ((Tick/Count))
system.mem_ctrl.requestorWriteAvgLat::writebacks 237972504.92                       # Per-requestor write average memory access latency ((Tick/Count))
system.mem_ctrl.dram.bytesRead::cpu.inst    287692672                       # Number of bytes read from this memory (Byte)
system.mem_ctrl.dram.bytesRead::cpu.data     13357888                       # Number of bytes read from this memory (Byte)
system.mem_ctrl.dram.bytesRead::cpu.l1d.prefetcher     30772352                       # Number of bytes read from this memory (Byte)
system.mem_ctrl.dram.bytesRead::total       331822912                       # Number of bytes read from this memory (Byte)
[...]
system.mem_ctrl.dram.bwRead::total          152791603                       # Total read bandwidth from this memory ((Byte/Second))
system.mem_ctrl.dram.bwInstRead::cpu.inst    132471336                       # Instruction read bandwidth from this memory ((Byte/Second))
system.mem_ctrl.dram.bwInstRead::total      132471336                       # Instruction read bandwidth from this memory ((Byte/Second))
system.mem_ctrl.dram.bwWrite::writebacks      6456006                       # Write bandwidth from this memory ((Byte/Second))
system.mem_ctrl.dram.bwWrite::total           6456006                       # Write bandwidth from this memory ((Byte/Second))
system.mem_ctrl.dram.bwTotal::writebacks      6456006                       # Total bandwidth to/from this memory ((Byte/Second))
system.mem_ctrl.dram.bwTotal::cpu.inst      132471336                       # Total bandwidth to/from this memory ((Byte/Second))
system.mem_ctrl.dram.bwTotal::cpu.data        6150790                       # Total bandwidth to/from this memory ((Byte/Second))
system.mem_ctrl.dram.bwTotal::cpu.l1d.prefetcher     14169477                       # Total bandwidth to/from this memory ((Byte/Second))
system.mem_ctrl.dram.bwTotal::total         159247609                       # Total bandwidth to/from this memory ((Byte/Second))
system.mem_ctrl.dram.readBursts               5063050                       # Number of DRAM read bursts (Count)
system.mem_ctrl.dram.writeBursts               177566                       # Number of DRAM write bursts (Count)
system.mem_ctrl.dram.perBankRdBursts::0        109448                       # Per bank write bursts (Count)
system.mem_ctrl.dram.perBankRdBursts::1         59692                       # Per bank write bursts (Count)
system.mem_ctrl.dram.perBankRdBursts::2       1814019                       # Per bank write bursts (Count)
system.mem_ctrl.dram.perBankRdBursts::3        564877                       # Per bank write bursts (Count)
system.mem_ctrl.dram.perBankRdBursts::4        184316                       # Per bank write bursts (Count)
system.mem_ctrl.dram.perBankRdBursts::5        538797                       # Per bank write bursts (Count)
system.mem_ctrl.dram.perBankRdBursts::6         64714                       # Per bank write bursts (Count)
system.mem_ctrl.dram.perBankRdBursts::7        721018                       # Per bank write bursts (Count)
system.mem_ctrl.dram.perBankRdBursts::8        268545                       # Per bank write bursts (Count)
system.mem_ctrl.dram.perBankRdBursts::9          2970                       # Per bank write bursts (Count)
system.mem_ctrl.dram.perBankRdBursts::10         1833                       # Per bank write bursts (Count)
system.mem_ctrl.dram.perBankRdBursts::11         8276                       # Per bank write bursts (Count)
system.mem_ctrl.dram.perBankRdBursts::12         6667                       # Per bank write bursts (Count)
system.mem_ctrl.dram.perBankRdBursts::13       623803                       # Per bank write bursts (Count)
system.mem_ctrl.dram.perBankRdBursts::14        37563                       # Per bank write bursts (Count)
system.mem_ctrl.dram.perBankRdBursts::15        56512                       # Per bank write bursts (Count)
system.mem_ctrl.dram.perBankWrBursts::0         24159                       # Per bank write bursts (Count)
system.mem_ctrl.dram.perBankWrBursts::1         51840                       # Per bank write bursts (Count)
system.mem_ctrl.dram.perBankWrBursts::2          1063                       # Per bank write bursts (Count)
system.mem_ctrl.dram.perBankWrBursts::3          3479                       # Per bank write bursts (Count)
system.mem_ctrl.dram.perBankWrBursts::4          5984                       # Per bank write bursts (Count)
system.mem_ctrl.dram.perBankWrBursts::5         19225                       # Per bank write bursts (Count)
system.mem_ctrl.dram.perBankWrBursts::6         21678                       # Per bank write bursts (Count)
system.mem_ctrl.dram.perBankWrBursts::7         12126                       # Per bank write bursts (Count)
system.mem_ctrl.dram.perBankWrBursts::8           924                       # Per bank write bursts (Count)
system.mem_ctrl.dram.perBankWrBursts::9           878                       # Per bank write bursts (Count)
system.mem_ctrl.dram.perBankWrBursts::10          882                       # Per bank write bursts (Count)
system.mem_ctrl.dram.perBankWrBursts::11          878                       # Per bank write bursts (Count)
system.mem_ctrl.dram.perBankWrBursts::12          914                       # Per bank write bursts (Count)
system.mem_ctrl.dram.perBankWrBursts::13         1049                       # Per bank write bursts (Count)
system.mem_ctrl.dram.perBankWrBursts::14        25050                       # Per bank write bursts (Count)
system.mem_ctrl.dram.perBankWrBursts::15         7437                       # Per bank write bursts (Count)
system.mem_ctrl.dram.totQLat              41674159407                       # Total ticks spent queuing (Tick)
system.mem_ctrl.dram.totBusLat            25315250000                       # Total ticks spent in databus transfers (Tick)
system.mem_ctrl.dram.totMemAccLat        136606346907                       # Total ticks spent from burst creation until serviced by the DRAM (Tick)
system.mem_ctrl.dram.avgQLat                  8231.04                       # Average queueing delay per DRAM burst ((Tick/Count))
system.mem_ctrl.dram.avgBusLat                5000.00                       # Average bus latency per DRAM burst ((Tick/Count))
system.mem_ctrl.dram.avgMemAccLat            26981.04                       # Average memory access latency per DRAM burst ((Tick/Count))
system.mem_ctrl.dram.readRowHits              3878283                       # Number of row buffer hits during reads (Count)
system.mem_ctrl.dram.writeRowHits              160296                       # Number of row buffer hits during writes (Count)
system.mem_ctrl.dram.readRowHitRate             76.60                       # Row buffer hit rate for reads (Ratio)
system.mem_ctrl.dram.writeRowHitRate            90.27                       # Row buffer hit rate for writes (Ratio)
system.mem_ctrl.dram.bytesPerActivate::samples      1202035                       # Bytes accessed per row activation (Byte)
system.mem_ctrl.dram.bytesPerActivate::mean   279.026231                       # Bytes accessed per row activation (Byte)
system.mem_ctrl.dram.bytesPerActivate::gmean   176.047169                       # Bytes accessed per row activation (Byte)
system.mem_ctrl.dram.bytesPerActivate::stdev   280.862271                       # Bytes accessed per row activation (Byte)
system.mem_ctrl.dram.bytesPerActivate::0-127       410829     34.18%     34.18% # Bytes accessed per row activation (Byte)
system.mem_ctrl.dram.bytesPerActivate::128-255       307440     25.58%     59.75% # Bytes accessed per row activation (Byte)
system.mem_ctrl.dram.bytesPerActivate::256-383       183411     15.26%     75.01% # Bytes accessed per row activation (Byte)
system.mem_ctrl.dram.bytesPerActivate::384-511        34277      2.85%     77.86% # Bytes accessed per row activation (Byte)
system.mem_ctrl.dram.bytesPerActivate::512-639        56945      4.74%     82.60% # Bytes accessed per row activation (Byte)
system.mem_ctrl.dram.bytesPerActivate::640-767        75028      6.24%     88.84% # Bytes accessed per row activation (Byte)
system.mem_ctrl.dram.bytesPerActivate::768-895        45369      3.77%     92.62% # Bytes accessed per row activation (Byte)
system.mem_ctrl.dram.bytesPerActivate::896-1023        61916      5.15%     97.77% # Bytes accessed per row activation (Byte)
system.mem_ctrl.dram.bytesPerActivate::1024-1151        26820      2.23%    100.00% # Bytes accessed per row activation (Byte)
system.mem_ctrl.dram.bytesPerActivate::total      1202035                       # Bytes accessed per row activation (Byte)
system.mem_ctrl.dram.dramBytesRead          324035200                       # Total bytes read (Byte)
system.mem_ctrl.dram.dramBytesWritten        11364224                       # Total bytes written (Byte)
system.mem_ctrl.dram.avgRdBW               149.205663                       # Average DRAM read bandwidth in MiBytes/s ((Byte/Second))
system.mem_ctrl.dram.avgWrBW                 5.232785                       # Average DRAM write bandwidth in MiBytes/s ((Byte/Second))
system.mem_ctrl.dram.peakBW                  12800.00                       # Theoretical peak bandwidth in MiByte/s ((Byte/Second))
system.mem_ctrl.dram.busUtil                     1.21                       # Data bus utilization in percentage (Ratio)
system.mem_ctrl.dram.busUtilRead                 1.17                       # Data bus utilization in percentage for reads (Ratio)
system.mem_ctrl.dram.busUtilWrite                0.04                       # Data bus utilization in percentage for writes (Ratio)
system.mem_ctrl.dram.pageHitRate                77.06                       # Row buffer hit rate, read and write combined (Ratio)
system.mem_ctrl.dram.power_state.pwrStateResidencyTicks::UNDEFINED 2171735265261                       # Cumulative time (in ticks) in various power states (Tick)
system.mem_ctrl.dram.rank0.actEnergy       6553905960                       # Energy for activate commands per rank (pJ) (Joule)
system.mem_ctrl.dram.rank0.preEnergy       3483479835                       # Energy for precharge commands per rank (pJ) (Joule)
system.mem_ctrl.dram.rank0.readEnergy     28966130340                       # Energy for read commands per rank (pJ) (Joule)
system.mem_ctrl.dram.rank0.writeEnergy      728471880                       # Energy for write commands per rank (pJ) (Joule)
system.mem_ctrl.dram.rank0.refreshEnergy 171434774160.000031                       # Energy for refresh commands per rank (pJ) (Joule)
system.mem_ctrl.dram.rank0.actBackEnergy 926063929200                       # Energy for active background per rank (pJ) (Joule)
system.mem_ctrl.dram.rank0.preBackEnergy  54103032960                       # Energy for precharge background per rank (pJ) (Joule)
system.mem_ctrl.dram.rank0.actPowerDownEnergy            0                       # Energy for active power-down per rank (pJ) (Joule)
system.mem_ctrl.dram.rank0.prePowerDownEnergy            0                       # Energy for precharge power-down per rank (pJ) (Joule)
system.mem_ctrl.dram.rank0.selfRefreshEnergy            0                       # Energy for self refresh per rank (pJ) (Joule)
system.mem_ctrl.dram.rank0.totalEnergy   1191333724335                       # Total energy per rank (pJ) (Joule)
system.mem_ctrl.dram.rank0.averagePower    548.563052                       # Core power per rank (mW) (Watt)
system.mem_ctrl.dram.rank0.totalIdleTime            0                       # Total Idle time Per DRAM Rank (Tick)
system.mem_ctrl.dram.rank0.pwrStateTime::IDLE 133207024841                       # Time in different power states (Tick)
system.mem_ctrl.dram.rank0.pwrStateTime::REF  72518940000                       # Time in different power states (Tick)
system.mem_ctrl.dram.rank0.pwrStateTime::SREF            0                       # Time in different power states (Tick)
system.mem_ctrl.dram.rank0.pwrStateTime::PRE_PDN            0                       # Time in different power states (Tick)
system.mem_ctrl.dram.rank0.pwrStateTime::ACT 1966009300420                       # Time in different power states (Tick)
system.mem_ctrl.dram.rank0.pwrStateTime::ACT_PDN            0                       # Time in different power states (Tick)
system.mem_ctrl.dram.rank1.actEnergy       2028638220                       # Energy for activate commands per rank (pJ) (Joule)
system.mem_ctrl.dram.rank1.preEnergy       1078242990                       # Energy for precharge commands per rank (pJ) (Joule)
system.mem_ctrl.dram.rank1.readEnergy      7184046660                       # Energy for read commands per rank (pJ) (Joule)
system.mem_ctrl.dram.rank1.writeEnergy      198422640                       # Energy for write commands per rank (pJ) (Joule)
system.mem_ctrl.dram.rank1.refreshEnergy 171434774160.000031                       # Energy for refresh commands per rank (pJ) (Joule)
system.mem_ctrl.dram.rank1.actBackEnergy 592457986320                       # Energy for active background per rank (pJ) (Joule)
system.mem_ctrl.dram.rank1.preBackEnergy 335034353280                       # Energy for precharge background per rank (pJ) (Joule)
system.mem_ctrl.dram.rank1.actPowerDownEnergy            0                       # Energy for active power-down per rank (pJ) (Joule)
system.mem_ctrl.dram.rank1.prePowerDownEnergy            0                       # Energy for precharge power-down per rank (pJ) (Joule)
system.mem_ctrl.dram.rank1.selfRefreshEnergy            0                       # Energy for self refresh per rank (pJ) (Joule)
system.mem_ctrl.dram.rank1.totalEnergy   1109416464270                       # Total energy per rank (pJ) (Joule)
system.mem_ctrl.dram.rank1.averagePower    510.843325                       # Core power per rank (mW) (Watt)
system.mem_ctrl.dram.rank1.totalIdleTime            0                       # Total Idle time Per DRAM Rank (Tick)
system.mem_ctrl.dram.rank1.pwrStateTime::IDLE 865147865253                       # Time in different power states (Tick)
system.mem_ctrl.dram.rank1.pwrStateTime::REF  72518940000                       # Time in different power states (Tick)
system.mem_ctrl.dram.rank1.pwrStateTime::SREF            0                       # Time in different power states (Tick)
system.mem_ctrl.dram.rank1.pwrStateTime::PRE_PDN            0                       # Time in different power states (Tick)
system.mem_ctrl.dram.rank1.pwrStateTime::ACT 1234068460008                       # Time in different power states (Tick)
system.mem_ctrl.dram.rank1.pwrStateTime::ACT_PDN            0                       # Time in different power states (Tick)
system.mem_ctrl.power_state.pwrStateResidencyTicks::UNDEFINED 2171735265261                       # Cumulative time (in ticks) in various power states (Tick)
system.membus.transDist::ReadResp             5136274                       # Transaction distribution (Count)
system.membus.transDist::WritebackDirty        219074                       # Transaction distribution (Count)
system.membus.transDist::CleanEvict           4965659                       # Transaction distribution (Count)
system.membus.transDist::ReadExReq              48459                       # Transaction distribution (Count)
system.membus.transDist::ReadExResp             48459                       # Transaction distribution (Count)
system.membus.transDist::ReadSharedReq        5136274                       # Transaction distribution (Count)
system.membus.pktCount_system.cpu.l1d.mem_side_port::system.mem_ctrl.port      2068605                       # Packet count per connected requestor and responder (Count)
system.membus.pktCount_system.cpu.l1d.mem_side_port::total      2068605                       # Packet count per connected requestor and responder (Count)
system.membus.pktCount_system.cpu.l1i.mem_side_port::system.mem_ctrl.port     13485594                       # Packet count per connected requestor and responder (Count)
system.membus.pktCount_system.cpu.l1i.mem_side_port::total     13485594                       # Packet count per connected requestor and responder (Count)
system.membus.pktCount::total                15554199                       # Packet count per connected requestor and responder (Count)
system.membus.pktSize_system.cpu.l1d.mem_side_port::system.mem_ctrl.port     58150976                       # Cumulative packet size per connected requestor and responder (Byte)
system.membus.pktSize_system.cpu.l1d.mem_side_port::total     58150976                       # Cumulative packet size per connected requestor and responder (Byte)
system.membus.pktSize_system.cpu.l1i.mem_side_port::system.mem_ctrl.port    287692672                       # Cumulative packet size per connected requestor and responder (Byte)
system.membus.pktSize_system.cpu.l1i.mem_side_port::total    287692672                       # Cumulative packet size per connected requestor and responder (Byte)
system.membus.pktSize::total                345843648                       # Cumulative packet size per connected requestor and responder (Byte)
system.membus.snoops                                0                       # Total snoops (Count)
system.membus.snoopTraffic                          0                       # Total snoop traffic (Byte)
system.membus.snoopFanout::samples            5184733                       # Request fanout histogram (Count)
system.membus.snoopFanout::mean                     0                       # Request fanout histogram (Count)
system.membus.snoopFanout::stdev                    0                       # Request fanout histogram (Count)
system.membus.snoopFanout::underflows               0      0.00%      0.00% # Request fanout histogram (Count)
system.membus.snoopFanout::0                  5184733    100.00%    100.00% # Request fanout histogram (Count)
system.membus.snoopFanout::1                        0      0.00%    100.00% # Request fanout histogram (Count)
system.membus.snoopFanout::2                        0      0.00%    100.00% # Request fanout histogram (Count)
system.membus.snoopFanout::overflows                0      0.00%    100.00% # Request fanout histogram (Count)
system.membus.snoopFanout::min_value                0                       # Request fanout histogram (Count)
system.membus.snoopFanout::max_value                0                       # Request fanout histogram (Count)
system.membus.snoopFanout::total              5184733                       # Request fanout histogram (Count)
system.membus.power_state.pwrStateResidencyTicks::UNDEFINED 2171735265261                       # Cumulative time (in ticks) in various power states (Tick)
system.membus.reqLayer2.occupancy        149939811406                       # Layer occupancy (ticks) (Tick)
system.membus.reqLayer2.utilization               0.1                       # Layer utilization (Ratio)
system.membus.respLayer1.occupancy        46831130646                       # Layer occupancy (ticks) (Tick)
system.membus.respLayer1.utilization              0.0                       # Layer utilization (Ratio)
system.membus.respLayer2.occupancy       305800455745                       # Layer occupancy (ticks) (Tick)
system.membus.respLayer2.utilization              0.1                       # Layer utilization (Ratio)
system.membus.snoop_filter.totRequests       10369466                       # Total number of requests made to the snoop filter. (Count)
system.membus.snoop_filter.hitSingleRequests      5184733                       # Number of requests hitting in the snoop filter with a single holder of the requested data. (Count)
system.membus.snoop_filter.hitMultiRequests            0                       # Number of requests hitting in the snoop filter with multiple (>1) holders of the requested data. (Count)
system.membus.snoop_filter.totSnoops                0                       # Total number of snoops made to the snoop filter. (Count)
system.membus.snoop_filter.hitSingleSnoops            0                       # Number of snoops hitting in the snoop filter with a single holder of the requested data. (Count)
system.membus.snoop_filter.hitMultiSnoops            0                       # Number of snoops hitting in the snoop filter with multiple (>1) holders of the requested data. (Count)
system.workload.inst.arm                            0                       # number of arm instructions executed (Count)
system.workload.inst.quiesce                        0                       # number of quiesce instructions executed (Count)


